<?xml version="1.0" encoding="UTF-8"?>

<!-- generated on 2024-03-29 17:17:27 by Eclipse SUMO netedit Version 1.19.0
<configuration xmlns:xsi="http://www.w3.org/2001/XMLSchema-instance" xsi:noNamespaceSchemaLocation="http://sumo.dlr.de/xsd/neteditConfiguration.xsd">

    <input>
        <sumo-net-file value="C:\Users\TLSYSLAB_3_ADMIN\Documents\Git\TIL_1hour\SUMO\94_3lanes_cross\test.net.xml"/>
    </input>

    <output>
        <output-file value="C:\Users\TLSYSLAB_3_ADMIN\Documents\Git\TIL_1hour\SUMO\94_3lanes_cross\test.net.xml"/>
    </output>

    <processing>
        <geometry.min-radius.fix.railways value="false"/>
        <geometry.max-grade.fix value="false"/>
        <offset.disable-normalization value="true"/>
        <lefthand value="0"/>
    </processing>

    <junctions>
        <no-turnarounds value="true"/>
        <junctions.corner-detail value="5"/>
        <junctions.limit-turn-speed value="5.50"/>
        <rectangular-lane-cut value="0"/>
    </junctions>

    <pedestrian>
        <walkingareas value="0"/>
    </pedestrian>

</configuration>
-->

<net version="1.16" junctionCornerDetail="5" limitTurnSpeed="5.50" xmlns:xsi="http://www.w3.org/2001/XMLSchema-instance" xsi:noNamespaceSchemaLocation="http://sumo.dlr.de/xsd/net_file.xsd">

    <location netOffset="0.00,0.00" convBoundary="-343.29,-140.11,276.95,307.26" origBoundary="-10000000000.00,-10000000000.00,10000000000.00,10000000000.00" projParameter="!"/>

    <edge id=":J1_0" function="internal">
        <lane id=":J1_0_0" index="0" speed="6.79" length="9.82" shape="47.94,59.14 45.25,59.50 43.32,60.62 42.14,62.50 41.70,65.13"/>
    </edge>
    <edge id=":J1_1" function="internal">
        <lane id=":J1_1_0" index="0" speed="13.89" length="27.85" shape="47.94,59.14 20.11,59.22"/>
        <lane id=":J1_1_1" index="1" speed="13.89" length="27.85" shape="47.93,55.94 20.07,56.02"/>
        <lane id=":J1_1_2" index="2" speed="13.89" length="27.85" shape="47.92,52.74 20.04,52.82"/>
    </edge>
    <edge id=":J1_4" function="internal">
        <lane id=":J1_4_0" index="0" speed="10.35" length="5.64" shape="47.92,52.74 42.34,51.91"/>
    </edge>
    <edge id=":J1_20" function="internal">
        <lane id=":J1_20_0" index="0" speed="10.35" length="19.31" shape="42.34,51.91 41.13,51.73 36.35,48.79 33.58,43.91 32.82,37.09"/>
    </edge>
    <edge id=":J1_5" function="internal">
        <lane id=":J1_5_0" index="0" speed="6.43" length="9.04" shape="42.41,37.39 42.68,39.86 43.69,41.63 45.42,42.68 47.89,43.03"/>
    </edge>
    <edge id=":J1_6" function="internal">
        <lane id=":J1_6_0" index="0" speed="13.89" length="27.78" shape="42.41,37.39 41.70,65.13"/>
        <lane id=":J1_6_1" index="1" speed="13.89" length="27.78" shape="39.21,37.29 38.50,65.06"/>
        <lane id=":J1_6_2" index="2" speed="13.89" length="27.78" shape="36.01,37.19 35.31,65.00"/>
    </edge>
    <edge id=":J1_9" function="internal">
        <lane id=":J1_9_0" index="0" speed="10.68" length="25.26" shape="36.01,37.19 34.83,43.97 31.78,48.83 26.85,51.78 20.04,52.82"/>
    </edge>
    <edge id=":J1_10" function="internal">
        <lane id=":J1_10_0" index="0" speed="6.91" length="10.11" shape="19.93,43.00 22.70,42.63 24.70,41.49 25.94,39.57 26.42,36.89"/>
    </edge>
    <edge id=":J1_11" function="internal">
        <lane id=":J1_11_0" index="0" speed="13.89" length="27.93" shape="19.93,43.00 47.89,43.03"/>
        <lane id=":J1_11_1" index="1" speed="13.89" length="27.93" shape="19.97,46.20 47.90,46.23"/>
        <lane id=":J1_11_2" index="2" speed="13.89" length="27.93" shape="20.00,49.40 47.91,49.43"/>
    </edge>
    <edge id=":J1_14" function="internal">
        <lane id=":J1_14_0" index="0" speed="10.41" length="6.27" shape="20.00,49.40 26.20,50.31"/>
    </edge>
    <edge id=":J1_21" function="internal">
        <lane id=":J1_21_0" index="0" speed="10.41" length="18.74" shape="26.20,50.31 26.81,50.40 31.63,53.34 34.46,58.20 35.31,65.00"/>
    </edge>
    <edge id=":J1_15" function="internal">
        <lane id=":J1_15_0" index="0" speed="6.43" length="9.03" shape="25.62,64.81 25.33,62.34 24.32,60.59 22.58,59.55 20.11,59.22"/>
    </edge>
    <edge id=":J1_16" function="internal">
        <lane id=":J1_16_0" index="0" speed="13.89" length="27.89" shape="25.62,64.81 26.42,36.89"/>
        <lane id=":J1_16_1" index="1" speed="13.89" length="27.89" shape="28.82,64.87 29.62,36.99"/>
        <lane id=":J1_16_2" index="2" speed="13.89" length="27.89" shape="32.02,64.94 32.82,37.09"/>
    </edge>
    <edge id=":J1_19" function="internal">
        <lane id=":J1_19_0" index="0" speed="10.61" length="25.16" shape="32.02,64.94 33.16,58.17 36.19,53.33 41.11,50.41 47.91,49.43"/>
    </edge>
    <edge id=":J10_0" function="internal">
        <lane id=":J10_0_0" index="0" speed="13.89" length="13.54" shape="-17.83,64.87 -20.57,62.93 -23.04,61.37 -25.98,60.32 -30.10,59.91"/>
    </edge>
    <edge id=":J10_1" function="internal">
        <lane id=":J10_1_0" index="0" speed="13.89" length="13.57" shape="-16.47,59.62 -30.10,59.91"/>
        <lane id=":J10_1_1" index="1" speed="13.89" length="13.57" shape="-16.51,56.42 -30.08,56.71"/>
        <lane id=":J10_1_2" index="2" speed="13.89" length="13.57" shape="-16.54,53.22 -30.05,53.51"/>
    </edge>
    <edge id=":J11_0" function="internal">
        <lane id=":J11_0_0" index="0" speed="7.81" length="3.76" shape="-23.96,39.58 -22.85,39.57 -22.08,39.46 -21.38,39.14 -20.46,38.53"/>
    </edge>
    <edge id=":J11_1" function="internal">
        <lane id=":J11_1_0" index="0" speed="13.89" length="4.01" shape="-23.97,42.78 -19.97,42.80"/>
        <lane id=":J11_1_1" index="1" speed="13.89" length="4.01" shape="-23.99,45.98 -19.98,46.00"/>
        <lane id=":J11_1_2" index="2" speed="13.89" length="4.01" shape="-24.00,49.18 -20.00,49.20"/>
    </edge>
    <edge id=":J12_0" function="internal">
        <lane id=":J12_0_0" index="0" speed="8.72" length="3.67" shape="47.39,-12.73 47.38,-11.65 47.46,-10.90 47.72,-10.19 48.24,-9.24"/>
    </edge>
    <edge id=":J12_1" function="internal">
        <lane id=":J12_1_0" index="0" speed="13.89" length="3.36" shape="44.19,-12.78 43.85,-9.39"/>
        <lane id=":J12_1_1" index="1" speed="13.89" length="3.36" shape="40.99,-12.84 40.65,-9.49"/>
        <lane id=":J12_1_2" index="2" speed="13.89" length="3.36" shape="37.79,-12.89 37.45,-9.59"/>
    </edge>
    <edge id=":J13_0" function="internal">
        <lane id=":J13_0_0" index="0" speed="13.89" length="15.00" shape="22.73,-7.64 24.74,-10.51 26.52,-13.25 27.82,-16.58 28.37,-21.21"/>
    </edge>
    <edge id=":J13_1" function="internal">
        <lane id=":J13_1_0" index="0" speed="13.89" length="15.00" shape="27.78,-6.26 28.37,-21.21"/>
        <lane id=":J13_1_1" index="1" speed="13.89" length="15.00" shape="30.98,-6.16 31.57,-21.16"/>
        <lane id=":J13_1_2" index="2" speed="13.89" length="15.00" shape="34.18,-6.06 34.77,-21.11"/>
    </edge>
    <edge id=":J14_0" function="internal">
        <lane id=":J14_0_0" index="0" speed="9.78" length="7.83" shape="87.13,39.03 88.79,40.69 90.00,41.89 91.39,42.61 93.59,42.86"/>
    </edge>
    <edge id=":J14_1" function="internal">
        <lane id=":J14_1_0" index="0" speed="13.89" length="7.80" shape="85.78,42.91 93.59,42.86"/>
        <lane id=":J14_1_1" index="1" speed="13.89" length="7.80" shape="85.79,46.11 93.59,46.06"/>
        <lane id=":J14_1_2" index="2" speed="13.89" length="7.80" shape="85.80,49.31 93.58,49.26"/>
    </edge>
    <edge id=":J3_0" function="internal">
        <lane id=":J3_0_0" index="0" speed="8.31" length="3.62" shape="83.66,62.62 82.59,62.63 81.85,62.72 81.16,62.99 80.25,63.54"/>
    </edge>
    <edge id=":J3_1" function="internal">
        <lane id=":J3_1_0" index="0" speed="13.89" length="3.69" shape="83.66,59.42 79.95,59.30"/>
        <lane id=":J3_1_1" index="1" speed="13.89" length="3.69" shape="83.65,56.22 79.97,56.10"/>
        <lane id=":J3_1_2" index="2" speed="13.89" length="3.69" shape="83.65,53.02 79.98,52.90"/>
    </edge>
    <edge id=":J4_0" function="internal">
        <lane id=":J4_0_0" index="0" speed="13.89" length="13.96" shape="46.43,95.08 44.32,97.76 42.59,100.25 41.38,103.26 40.87,107.51"/>
    </edge>
    <edge id=":J4_1" function="internal">
        <lane id=":J4_1_0" index="0" speed="13.89" length="13.95" shape="41.14,93.56 40.87,107.51"/>
        <lane id=":J4_1_1" index="1" speed="13.89" length="13.95" shape="37.94,93.49 37.67,107.44"/>
        <lane id=":J4_1_2" index="2" speed="13.89" length="13.95" shape="34.74,93.43 34.47,107.38"/>
    </edge>
    <edge id=":J9_0" function="internal">
        <lane id=":J9_0_0" index="0" speed="7.29" length="3.89" shape="21.36,102.74 21.36,101.60 21.23,100.80 20.88,100.08 20.19,99.17"/>
    </edge>
    <edge id=":J9_1" function="internal">
        <lane id=":J9_1_0" index="0" speed="13.89" length="3.99" shape="24.56,102.80 24.74,98.79"/>
        <lane id=":J9_1_1" index="1" speed="13.89" length="3.99" shape="27.76,102.86 27.94,98.88"/>
        <lane id=":J9_1_2" index="2" speed="13.89" length="3.99" shape="30.96,102.92 31.14,98.96"/>
    </edge>

    <edge id="-E4" from="J5" to="J11" priority="-1">
        <lane id="-E4_0" index="0" speed="13.89" length="319.28" shape="-343.24,38.10 -23.96,39.58"/>
        <lane id="-E4_1" index="1" speed="13.89" length="319.28" shape="-343.25,41.30 -23.97,42.78"/>
        <lane id="-E4_2" index="2" speed="13.89" length="319.28" shape="-343.27,44.50 -23.99,45.98"/>
        <lane id="-E4_3" index="3" speed="13.89" length="319.28" shape="-343.28,47.70 -24.00,49.18"/>
    </edge>
    <edge id="-E4.305" from="J11" to="J1" priority="-1">
        <lane id="-E4.305_0" index="0" speed="13.89" length="39.95" shape="-19.97,42.80 19.93,43.00"/>
        <lane id="-E4.305_1" index="1" speed="13.89" length="39.95" shape="-19.98,46.00 19.97,46.20"/>
        <lane id="-E4.305_2" index="2" speed="13.89" length="39.95" shape="-20.00,49.20 20.00,49.40"/>
    </edge>
    <edge id="-E5" from="J6" to="J9" priority="-1">
        <lane id="-E5_0" index="0" speed="13.89" length="204.35" shape="17.66,307.06 21.36,102.74"/>
        <lane id="-E5_1" index="1" speed="13.89" length="204.35" shape="20.86,307.12 24.56,102.80"/>
        <lane id="-E5_2" index="2" speed="13.89" length="204.35" shape="24.06,307.17 27.76,102.86"/>
        <lane id="-E5_3" index="3" speed="13.89" length="204.35" shape="27.26,307.23 30.96,102.92"/>
    </edge>
    <edge id="-E5.195" from="J9" to="J1" priority="-1">
        <lane id="-E5.195_0" index="0" speed="13.89" length="34.02" shape="24.74,98.79 25.62,64.81"/>
        <lane id="-E5.195_1" index="1" speed="13.89" length="34.02" shape="27.94,98.88 28.82,64.87"/>
        <lane id="-E5.195_2" index="2" speed="13.89" length="34.02" shape="31.14,98.96 32.02,64.94"/>
    </edge>
    <edge id="-E6" from="J7" to="J3" priority="-1">
        <lane id="-E6_0" index="0" speed="13.89" length="193.30" shape="276.96,62.37 83.66,62.62"/>
        <lane id="-E6_1" index="1" speed="13.89" length="193.30" shape="276.96,59.17 83.66,59.42"/>
        <lane id="-E6_2" index="2" speed="13.89" length="193.30" shape="276.96,55.97 83.65,56.22"/>
        <lane id="-E6_3" index="3" speed="13.89" length="193.30" shape="276.95,52.77 83.65,53.02"/>
    </edge>
    <edge id="-E6.177" from="J3" to="J1" priority="-1">
        <lane id="-E6.177_0" index="0" speed="13.89" length="32.04" shape="79.95,59.30 47.94,59.14"/>
        <lane id="-E6.177_1" index="1" speed="13.89" length="32.04" shape="79.97,56.10 47.93,55.94"/>
        <lane id="-E6.177_2" index="2" speed="13.89" length="32.04" shape="79.98,52.90 47.92,52.74"/>
    </edge>
    <edge id="-E7" from="J8" to="J12" priority="-1" length="289.68">
        <lane id="-E7_0" index="0" speed="13.89" length="289.68" shape="49.46,-139.93 47.39,-12.73"/>
        <lane id="-E7_1" index="1" speed="13.89" length="289.68" shape="46.26,-139.98 44.19,-12.78"/>
        <lane id="-E7_2" index="2" speed="13.89" length="289.68" shape="43.06,-140.03 40.99,-12.84"/>
        <lane id="-E7_3" index="3" speed="13.89" length="289.68" shape="39.86,-140.08 37.79,-12.89"/>
    </edge>
    <edge id="-E7.110" from="J12" to="J1" priority="-1" length="210.32">
        <lane id="-E7.110_0" index="0" speed="13.89" length="210.32" shape="43.85,-9.39 42.41,37.39"/>
        <lane id="-E7.110_1" index="1" speed="13.89" length="210.32" shape="40.65,-9.49 39.21,37.29"/>
        <lane id="-E7.110_2" index="2" speed="13.89" length="210.32" shape="37.45,-9.59 36.01,37.19"/>
    </edge>
    <edge id="E0" from="J3" to="J4" priority="-1" shape="99.89,51.40 97.98,52.23 96.09,53.09 94.22,53.97 92.38,54.87 90.55,55.79 88.75,56.74 86.96,57.70 85.20,58.69 83.46,59.70 81.73,60.73 80.03,61.78 78.35,62.86 76.70,63.96 75.06,65.08 73.44,66.22 71.84,67.38 70.27,68.57 68.72,69.77 67.18,71.00 65.67,72.25 64.18,73.53 62.71,74.82 61.26,76.14 59.83,77.48 58.42,78.84 57.03,80.22 55.67,81.62 54.32,83.05 53.00,84.50 51.69,85.97 50.41,87.46 49.15,88.98 47.91,90.51 46.69,92.07 45.49,93.65 44.31,95.25 43.15,96.88 42.02,98.52 40.90,100.19 39.81,101.88 38.73,103.59 37.68,105.32 36.65,107.08 35.64,108.86 34.65,110.66 33.68,112.48 32.73,114.32">
        <lane id="E0_0" index="0" speed="13.89" length="46.51" shape="80.25,63.54 79.23,64.20 77.59,65.29 75.97,66.39 74.37,67.52 72.79,68.67 71.24,69.84 69.71,71.03 68.19,72.24 66.70,73.47 65.23,74.74 63.78,76.01 62.35,77.32 60.93,78.64 59.54,79.98 58.17,81.35 56.83,82.73 55.49,84.14 54.19,85.57 52.89,87.02 51.63,88.49 50.39,89.99 49.16,91.51 47.96,93.05 46.77,94.61 46.43,95.08"/>
    </edge>
    <edge id="E1" from="J9" to="J10" priority="-1" shape="32.37,113.32 31.30,111.67 30.22,110.04 29.12,108.42 28.00,106.82 26.86,105.23 25.70,103.66 24.53,102.10 23.34,100.55 22.13,99.02 20.90,97.51 19.65,96.01 18.39,94.52 17.11,93.05 15.81,91.60 14.49,90.16 13.16,88.73 11.81,87.32 10.44,85.92 9.05,84.54 7.64,83.18 6.22,81.82 4.78,80.49 3.32,79.16 1.84,77.86 0.34,76.56 -1.17,75.28 -2.70,74.02 -4.25,72.77 -5.82,71.54 -7.40,70.32 -9.00,69.11 -10.62,67.92 -12.26,66.75 -13.92,65.59 -15.59,64.44 -17.28,63.31 -18.99,62.20 -20.72,61.10 -22.47,60.01 -24.23,58.94 -26.01,57.88 -27.81,56.84 -29.62,55.81 -31.46,54.80 -33.31,53.80 -35.18,52.82 -37.07,51.85">
        <lane id="E1_0" index="0" speed="13.89" length="51.41" shape="20.19,99.17 19.67,98.53 18.42,97.04 17.18,95.56 15.91,94.11 14.62,92.67 13.31,91.25 12.00,89.83 10.66,88.43 9.30,87.05 7.93,85.68 6.53,84.33 5.12,82.99 3.70,81.67 2.25,80.35 0.79,79.07 -0.70,77.77 -2.20,76.51 -3.71,75.26 -5.25,74.02 -6.80,72.80 -8.37,71.59 -9.96,70.39 -11.56,69.22 -13.18,68.06 -14.83,66.90 -16.49,65.76 -17.83,64.87"/>
    </edge>
    <edge id="E2" from="J11" to="J13" priority="-1" shape="-37.01,50.72 -35.32,49.80 -33.64,48.87 -31.98,47.91 -30.33,46.93 -28.69,45.94 -27.07,44.92 -25.46,43.89 -23.86,42.83 -22.27,41.76 -20.70,40.67 -19.14,39.55 -17.60,38.42 -16.06,37.27 -14.54,36.10 -13.04,34.91 -11.54,33.69 -10.06,32.46 -8.60,31.21 -7.14,29.94 -5.70,28.66 -4.27,27.35 -2.86,26.02 -1.46,24.67 -0.07,23.30 1.31,21.92 2.67,20.51 4.02,19.09 5.36,17.64 6.68,16.17 7.99,14.69 9.29,13.19 10.57,11.66 11.84,10.12 13.10,8.56 14.34,6.97 15.58,5.37 16.79,3.75 18.00,2.11 19.19,0.45 20.37,-1.23 21.54,-2.93 22.69,-4.65 23.83,-6.39 24.96,-8.15 26.07,-9.93 27.17,-11.72 28.26,-13.54 29.33,-15.38 30.40,-17.23 31.44,-19.11 32.48,-21.00 33.50,-22.92 34.51,-24.85 35.51,-26.81 36.49,-28.78">
        <lane id="E2_0" index="0" speed="13.89" length="63.60" shape="-20.46,38.53 -20.08,38.26 -18.55,37.13 -17.03,36.00 -15.53,34.84 -14.04,33.66 -12.56,32.45 -11.09,31.24 -9.65,30.00 -8.20,28.74 -6.77,27.47 -5.36,26.18 -3.96,24.86 -2.58,23.52 -1.20,22.16 0.17,20.80 1.51,19.40 2.85,18.00 4.18,16.56 5.49,15.11 6.79,13.64 8.07,12.15 9.34,10.64 10.60,9.11 11.85,7.57 13.08,5.99 14.31,4.40 15.51,2.80 16.71,1.17 17.89,-0.48 19.06,-2.14 20.22,-3.83 21.36,-5.53 22.49,-7.26 22.73,-7.64"/>
    </edge>
    <edge id="E3" from="J12" to="J14" priority="-1" shape="36.45,-28.91 37.31,-27.00 38.19,-25.11 39.07,-23.23 39.98,-21.37 40.90,-19.51 41.83,-17.68 42.78,-15.85 43.74,-14.04 44.72,-12.24 45.71,-10.46 46.71,-8.69 47.73,-6.94 48.77,-5.19 49.82,-3.46 50.88,-1.75 51.96,-0.05 53.06,1.64 54.16,3.31 55.29,4.97 56.42,6.62 57.58,8.25 58.74,9.87 59.92,11.48 61.12,13.07 62.33,14.65 63.55,16.21 64.79,17.76 66.05,19.30 67.32,20.82 68.60,22.33 69.90,23.83 71.21,25.31 72.54,26.78 73.88,28.23 75.23,29.67 76.60,31.10 77.99,32.51 79.39,33.91 80.80,35.30 82.23,36.67 83.67,38.03 85.13,39.38 86.60,40.71 88.09,42.03 89.59,43.33 91.11,44.62 92.64,45.90 94.19,47.16 95.75,48.41 97.32,49.65 98.91,50.87">
        <lane id="E3_0" index="0" speed="13.89" length="62.25" shape="48.24,-9.24 49.11,-7.75 50.14,-6.01 51.18,-4.30 52.24,-2.60 53.31,-0.92 54.40,0.76 55.49,2.42 56.61,4.07 57.73,5.70 58.88,7.32 60.04,8.93 61.20,10.53 62.39,12.10 63.60,13.67 64.80,15.22 66.03,16.75 67.28,18.28 68.54,19.79 69.81,21.29 71.10,22.78 72.40,24.24 73.72,25.70 75.05,27.14 76.39,28.57 77.75,29.98 79.13,31.38 80.52,32.77 81.92,34.15 83.33,35.51 84.76,36.86 86.21,38.20 87.13,39.03"/>
    </edge>
    <edge id="E4" from="J1" to="J10" priority="-1">
        <lane id="E4_0" index="0" speed="13.89" length="36.58" shape="20.11,59.22 -16.47,59.62"/>
        <lane id="E4_1" index="1" speed="13.89" length="36.58" shape="20.07,56.02 -16.51,56.42"/>
        <lane id="E4_2" index="2" speed="13.89" length="36.58" shape="20.04,52.82 -16.54,53.22"/>
    </edge>
    <edge id="E4.70" from="J10" to="J5" priority="-1">
        <lane id="E4.70_0" index="0" speed="13.89" length="313.27" shape="-30.10,59.91 -343.36,57.30"/>
        <lane id="E4.70_1" index="1" speed="13.89" length="313.27" shape="-30.08,56.71 -343.33,54.10"/>
        <lane id="E4.70_2" index="2" speed="13.89" length="313.27" shape="-30.05,53.51 -343.30,50.90"/>
    </edge>
    <edge id="E5" from="J1" to="J4" priority="-1">
        <lane id="E5_0" index="0" speed="13.89" length="28.44" shape="41.70,65.13 41.14,93.56"/>
        <lane id="E5_1" index="1" speed="13.89" length="28.44" shape="38.50,65.06 37.94,93.49"/>
        <lane id="E5_2" index="2" speed="13.89" length="28.44" shape="35.31,65.00 34.74,93.43"/>
    </edge>
    <edge id="E5.61" from="J4" to="J6" priority="-1">
        <lane id="E5.61_0" index="0" speed="13.89" length="199.96" shape="40.87,107.51 36.86,307.42"/>
        <lane id="E5.61_1" index="1" speed="13.89" length="199.96" shape="37.67,107.44 33.66,307.36"/>
        <lane id="E5.61_2" index="2" speed="13.89" length="199.96" shape="34.47,107.38 30.46,307.29"/>
    </edge>
    <edge id="E6" from="J1" to="J14" priority="-1">
        <lane id="E6_0" index="0" speed="13.89" length="37.89" shape="47.89,43.03 85.78,42.91"/>
        <lane id="E6_1" index="1" speed="13.89" length="37.89" shape="47.90,46.23 85.79,46.11"/>
        <lane id="E6_2" index="2" speed="13.89" length="37.89" shape="47.91,49.43 85.80,49.31"/>
    </edge>
    <edge id="E6.65" from="J14" to="J7" priority="-1">
        <lane id="E6.65_0" index="0" speed="13.89" length="183.37" shape="93.59,42.86 276.96,43.17"/>
        <lane id="E6.65_1" index="1" speed="13.89" length="183.37" shape="93.59,46.06 276.96,46.37"/>
        <lane id="E6.65_2" index="2" speed="13.89" length="183.37" shape="93.58,49.26 276.95,49.57"/>
    </edge>
    <edge id="E7" from="J1" to="J13" priority="-1" length="208.83">
        <lane id="E7_0" index="0" speed="13.89" length="208.83" shape="26.42,36.89 27.78,-6.26"/>
        <lane id="E7_1" index="1" speed="13.89" length="208.83" shape="29.62,36.99 30.98,-6.16"/>
        <lane id="E7_2" index="2" speed="13.89" length="208.83" shape="32.82,37.09 34.18,-6.06"/>
    </edge>
    <edge id="E7.79" from="J13" to="J8" priority="-1" length="291.17">
        <lane id="E7.79_0" index="0" speed="13.89" length="291.17" shape="28.37,-21.21 30.26,-140.24"/>
        <lane id="E7.79_1" index="1" speed="13.89" length="291.17" shape="31.57,-21.16 33.46,-140.19"/>
        <lane id="E7.79_2" index="2" speed="13.89" length="291.17" shape="34.77,-21.11 36.66,-140.14"/>
    </edge>

    <junction id="J1" type="traffic_light" x="33.98" y="51.07" incLanes="-E6.177_0 -E6.177_1 -E6.177_2 -E7.110_0 -E7.110_1 -E7.110_2 -E4.305_0 -E4.305_1 -E4.305_2 -E5.195_0 -E5.195_1 -E5.195_2" intLanes=":J1_0_0 :J1_1_0 :J1_1_1 :J1_1_2 :J1_20_0 :J1_5_0 :J1_6_0 :J1_6_1 :J1_6_2 :J1_9_0 :J1_10_0 :J1_11_0 :J1_11_1 :J1_11_2 :J1_21_0 :J1_15_0 :J1_16_0 :J1_16_1 :J1_16_2 :J1_19_0" shape="47.94,60.74 47.88,41.43 45.67,40.99 44.91,40.44 44.38,39.66 44.08,38.66 44.01,37.44 24.82,36.84 24.21,39.38 23.52,40.27 22.58,40.90 21.37,41.28 19.91,41.40 20.13,60.82 22.34,61.24 23.10,61.79 23.64,62.56 23.94,63.56 24.02,64.78 43.30,65.16 43.86,62.69 44.51,61.83 45.40,61.22 46.55,60.86">
        <request index="0"  response="00000000000000000000" foes="00000000000111000000" cont="0"/>
        <request index="1"  response="00000000000000000000" foes="11111100001111000000" cont="0"/>
        <request index="2"  response="00000000000000000000" foes="11111100001111000000" cont="0"/>
        <request index="3"  response="00000000000000000000" foes="11111100001111000000" cont="0"/>
        <request index="4"  response="00000011100000000000" foes="11110011101111000000" cont="1"/>
        <request index="5"  response="00000011100000000000" foes="00000011100000000000" cont="0"/>
        <request index="6"  response="00000111100000011111" foes="10000111100000011111" cont="0"/>
        <request index="7"  response="00000111100000011111" foes="10000111100000011111" cont="0"/>
        <request index="8"  response="00000111100000011111" foes="10000111100000011111" cont="0"/>
        <request index="9"  response="01110111100000011110" foes="01110111100000011110" cont="0"/>
        <request index="10" response="00000000000000000000" foes="01110000000000000000" cont="0"/>
        <request index="11" response="00000000000000000000" foes="11110000001111110000" cont="0"/>
        <request index="12" response="00000000000000000000" foes="11110000001111110000" cont="0"/>
        <request index="13" response="00000000000000000000" foes="11110000001111110000" cont="0"/>
        <request index="14" response="00000000000000001110" foes="11110000001111001110" cont="1"/>
        <request index="15" response="00000000000000001110" foes="00000000000000001110" cont="0"/>
        <request index="16" response="00000111110000011110" foes="00000111111000011110" cont="0"/>
        <request index="17" response="00000111110000011110" foes="00000111111000011110" cont="0"/>
        <request index="18" response="00000111110000011110" foes="00000111111000011110" cont="0"/>
        <request index="19" response="00000111100111011110" foes="00000111100111011110" cont="0"/>
    </junction>
    <junction id="J10" type="priority" x="-37.07" y="51.85" incLanes="E1_0 E4_0 E4_1 E4_2" intLanes=":J10_0_0 :J10_1_0 :J10_1_1 :J10_1_2" shape="-18.57,66.30 -17.09,63.43 -18.46,62.23 -18.56,61.80 -18.25,61.49 -17.55,61.30 -16.46,61.22 -16.56,51.62 -30.04,51.91 -30.12,61.51 -27.45,61.64 -25.50,62.00 -23.94,62.62 -22.48,63.52 -20.79,64.74">
        <request index="0" response="1110" foes="1110" cont="0"/>
        <request index="1" response="0000" foes="0001" cont="0"/>
        <request index="2" response="0000" foes="0001" cont="0"/>
        <request index="3" response="0000" foes="0001" cont="0"/>
    </junction>
    <junction id="J11" type="priority" x="-37.01" y="50.72" incLanes="-E4_0 -E4_1 -E4_2 -E4_3" intLanes=":J11_0_0 :J11_1_0 :J11_1_1 :J11_1_2" shape="-20.01,50.80 -19.96,41.20 -20.58,41.06 -20.63,40.89 -20.49,40.64 -20.18,40.33 -19.69,39.94 -21.23,37.11 -22.13,37.71 -22.49,37.86 -22.87,37.94 -23.33,37.98 -23.95,37.98 -24.01,50.78">
        <request index="0" response="0000" foes="0000" cont="0"/>
        <request index="1" response="0000" foes="0000" cont="0"/>
        <request index="2" response="0000" foes="0000" cont="0"/>
        <request index="3" response="0000" foes="0000" cont="0"/>
    </junction>
    <junction id="J12" type="priority" x="36.45" y="-28.91" incLanes="-E7_0 -E7_1 -E7_2 -E7_3" intLanes=":J12_0_0 :J12_1_0 :J12_1_1 :J12_1_2" shape="46.77,-8.58 49.71,-9.90 49.19,-10.86 49.07,-11.23 49.00,-11.61 48.98,-12.08 48.99,-12.71 36.19,-12.91 35.85,-9.64 45.45,-9.34 45.62,-9.90 45.80,-9.87 46.06,-9.64 46.38,-9.21">
        <request index="0" response="0000" foes="0000" cont="0"/>
        <request index="1" response="0000" foes="0000" cont="0"/>
        <request index="2" response="0000" foes="0000" cont="0"/>
        <request index="3" response="0000" foes="0000" cont="0"/>
    </junction>
    <junction id="J13" type="priority" x="36.49" y="-28.78" incLanes="E2_0 E7_0 E7_1 E7_2" intLanes=":J13_0_0 :J13_1_0 :J13_1_1 :J13_1_2" shape="36.37,-21.08 26.77,-21.23 26.59,-18.26 26.14,-16.10 25.41,-14.38 24.37,-12.76 23.00,-10.87 21.29,-8.36 24.17,-6.93 26.18,-6.31 35.77,-6.01">
        <request index="0" response="1110" foes="1110" cont="0"/>
        <request index="1" response="0000" foes="0001" cont="0"/>
        <request index="2" response="0000" foes="0001" cont="0"/>
        <request index="3" response="0000" foes="0001" cont="0"/>
    </junction>
    <junction id="J14" type="priority" x="98.91" y="50.87" incLanes="E3_0 E6_0 E6_1 E6_2" intLanes=":J14_0_0 :J14_1_0 :J14_1_1 :J14_1_2" shape="93.58,50.86 93.59,41.26 91.26,40.84 90.54,40.33 89.88,39.64 89.13,38.78 88.11,37.76 86.15,40.31 86.60,40.86 86.61,41.06 86.48,41.20 86.20,41.28 85.77,41.31 85.80,50.91">
        <request index="0" response="1110" foes="1110" cont="0"/>
        <request index="1" response="0000" foes="0001" cont="0"/>
        <request index="2" response="0000" foes="0001" cont="0"/>
        <request index="3" response="0000" foes="0001" cont="0"/>
    </junction>
    <junction id="J3" type="priority" x="99.89" y="51.40" incLanes="-E6_0 -E6_1 -E6_2 -E6_3" intLanes=":J3_0_0 :J3_1_0 :J3_1_1 :J3_1_2" shape="83.66,64.22 83.65,51.42 79.99,51.30 79.94,60.90 80.55,61.03 80.58,61.19 80.43,61.42 80.11,61.70 79.60,62.06 80.90,65.03 81.83,64.47 82.19,64.33 82.58,64.26 83.04,64.23">
        <request index="0" response="0000" foes="0000" cont="0"/>
        <request index="1" response="0000" foes="0000" cont="0"/>
        <request index="2" response="0000" foes="0000" cont="0"/>
        <request index="3" response="0000" foes="0000" cont="0"/>
    </junction>
    <junction id="J4" type="priority" x="32.73" y="114.32" incLanes="E0_0 E5_0 E5_1 E5_2" intLanes=":J4_0_0 :J4_1_0 :J4_1_1 :J4_1_2" shape="47.86,95.82 44.99,94.33 43.71,95.65 43.26,95.72 42.96,95.40 42.78,94.69 42.74,93.59 33.14,93.40 32.87,107.35 42.47,107.54 42.65,104.79 43.07,102.79 43.78,101.21 44.79,99.73 46.14,98.04">
        <request index="0" response="1110" foes="1110" cont="0"/>
        <request index="1" response="0000" foes="0001" cont="0"/>
        <request index="2" response="0000" foes="0001" cont="0"/>
        <request index="3" response="0000" foes="0001" cont="0"/>
    </junction>
    <junction id="J5" type="dead_end" x="-343.29" y="49.30" incLanes="E4.70_0 E4.70_1 E4.70_2" intLanes="" shape="-343.29,49.30 -343.23,36.50 -343.37,58.90"/>
    <junction id="J6" type="dead_end" x="28.86" y="307.26" incLanes="E5.61_0 E5.61_1 E5.61_2" intLanes="" shape="28.86,307.26 16.06,307.03 38.46,307.45"/>
    <junction id="J7" type="dead_end" x="276.95" y="51.17" incLanes="E6.65_0 E6.65_1 E6.65_2" intLanes="" shape="276.95,51.17 276.97,63.97 276.97,41.57"/>
    <junction id="J8" type="dead_end" x="38.26" y="-140.11" incLanes="E7.79_0 E7.79_1 E7.79_2" intLanes="" shape="38.26,-140.11 51.06,-139.90 28.66,-140.26"/>
    <junction id="J9" type="priority" x="32.37" y="113.32" incLanes="-E5_0 -E5_1 -E5_2 -E5_3" intLanes=":J9_0_0 :J9_1_0 :J9_1_1 :J9_1_2" shape="32.74,99.00 23.14,98.75 22.95,99.35 22.72,99.37 22.41,99.20 22.02,98.84 21.54,98.30 18.84,100.05 19.48,100.91 19.64,101.26 19.73,101.64 19.76,102.10 19.76,102.72 32.56,102.95">
        <request index="0" response="0000" foes="0000" cont="0"/>
        <request index="1" response="0000" foes="0000" cont="0"/>
        <request index="2" response="0000" foes="0000" cont="0"/>
        <request index="3" response="0000" foes="0000" cont="0"/>
    </junction>

    <junction id=":J1_20_0" type="internal" x="42.34" y="51.91" incLanes=":J1_4_0 -E4.305_0 -E4.305_1 -E4.305_2" intLanes=":J1_6_0 :J1_6_1 :J1_6_2 :J1_9_0 :J1_10_0 :J1_11_0 :J1_11_1 :J1_11_2 :J1_16_0 :J1_16_1 :J1_16_2 :J1_19_0"/>
    <junction id=":J1_21_0" type="internal" x="26.20" y="50.31" incLanes=":J1_14_0 -E6.177_0 -E6.177_1 -E6.177_2" intLanes=":J1_0_0 :J1_1_0 :J1_1_1 :J1_1_2 :J1_6_0 :J1_6_1 :J1_6_2 :J1_9_0 :J1_16_0 :J1_16_1 :J1_16_2 :J1_19_0"/>

    <connection from="-E4" to="E2" fromLane="0" toLane="0" via=":J11_0_0" dir="R" state="M"/>
    <connection from="-E4" to="-E4.305" fromLane="1" toLane="0" via=":J11_1_0" dir="s" state="M"/>
    <connection from="-E4" to="-E4.305" fromLane="2" toLane="1" via=":J11_1_1" dir="s" state="M"/>
    <connection from="-E4" to="-E4.305" fromLane="3" toLane="2" via=":J11_1_2" dir="s" state="M"/>
    <connection from="-E4.305" to="E7" fromLane="0" toLane="0" uncontrolled="1" via=":J1_10_0" dir="r" state="M"/>
    <connection from="-E4.305" to="E6" fromLane="0" toLane="0" uncontrolled="1" via=":J1_11_0" dir="s" state="M"/>
    <connection from="-E4.305" to="E6" fromLane="1" toLane="1" uncontrolled="1" via=":J1_11_1" dir="s" state="M"/>
    <connection from="-E4.305" to="E6" fromLane="2" toLane="2" uncontrolled="1" via=":J1_11_2" dir="s" state="M"/>
    <connection from="-E4.305" to="E5" fromLane="2" toLane="2" uncontrolled="1" via=":J1_14_0" dir="l" state="m"/>
    <connection from="-E5" to="E1" fromLane="0" toLane="0" via=":J9_0_0" dir="R" state="M"/>
    <connection from="-E5" to="-E5.195" fromLane="1" toLane="0" via=":J9_1_0" dir="s" state="M"/>
    <connection from="-E5" to="-E5.195" fromLane="2" toLane="1" via=":J9_1_1" dir="s" state="M"/>
    <connection from="-E5" to="-E5.195" fromLane="3" toLane="2" via=":J9_1_2" dir="s" state="M"/>