<additional>
<tazs>
    <taz id="0" edges="E0"/>
    <taz id="1" edges="E1"/>

</tazs>
</additional>