<additional>
    <edgeData id="singal_JC" file="results.xml" excludeEmpty="true" begin="0" end="7200"/>
    <!-- <edgeData id="gneE98" file="temp" begin="1000" end="1600"/> -->
</additional>
