<additional>
<tazs>
    <taz id="10" edges="42064236"/>
    <taz id="11" edges="206489381"/>
    <taz id="20" edges="70707218"/>
    <taz id="21" edges="170605263"/>
    <taz id="30" edges="277654571"/>
    <taz id="31" edges="43947365"/>
    <taz id="40" edges="43948501"/>
    <taz id="41" edges="170601197"/>

</tazs>
</additional>