<additional>
<tazs>
    <taz id="101" edges="518702967"/>
    <taz id="201" edges="-518702967"/>
    <taz id="102" edges="-634224224"/>
    <taz id="202" edges="634224224"/>
    <taz id="103" edges="-218769245#1"/>
    <taz id="203" edges="218769245#1"/>
    <taz id="104" edges="379598682#0"/>
    <taz id="204" edges="183895355#1"/>

</tazs>
</additional>