<?xml version="1.0" encoding="UTF-8"?>

<!-- generated on 2023-12-28 21:44:36 by Eclipse SUMO netedit Version 1.18.0
<configuration xmlns:xsi="http://www.w3.org/2001/XMLSchema-instance" xsi:noNamespaceSchemaLocation="http://sumo.dlr.de/xsd/neteditConfiguration.xsd">

    <input>
        <sumo-net-file value="C:\Users\TLSYSLAB_3_ADMIN\Documents\Git\TIL_1hour\SUMO\singal\singal.net.xml"/>
    </input>

    <output>
        <output-file value="C:\Users\TLSYSLAB_3_ADMIN\Documents\Git\TIL_1hour\SUMO\singal\singal.net.xml"/>
    </output>

    <processing>
        <geometry.min-radius.fix.railways value="false"/>
        <geometry.max-grade.fix value="false"/>
        <offset.disable-normalization value="true"/>
        <lefthand value="0"/>
    </processing>

    <junctions>
        <no-turnarounds value="true"/>
        <junctions.corner-detail value="5"/>
        <junctions.limit-turn-speed value="5.50"/>
        <rectangular-lane-cut value="0"/>
    </junctions>

    <pedestrian>
        <walkingareas value="0"/>
    </pedestrian>

</configuration>
-->

<net version="1.16" junctionCornerDetail="5" limitTurnSpeed="5.50" xmlns:xsi="http://www.w3.org/2001/XMLSchema-instance" xsi:noNamespaceSchemaLocation="http://sumo.dlr.de/xsd/net_file.xsd">

    <location netOffset="-329774.10,-4119562.78" convBoundary="0.00,0.00,4793.26,18388.10" origBoundary="127.079533,37.207253,127.144627,37.373108" projParameter="+proj=utm +zone=52 +ellps=WGS84 +datum=WGS84 +units=m +no_defs"/>

    <type id="highway.motorway" priority="14" numLanes="2" speed="39.44" allow="private emergency authority army vip passenger hov taxi bus coach delivery truck trailer motorcycle evehicle custom1 custom2" oneway="1"/>
    <type id="highway.motorway_link" priority="9" numLanes="1" speed="22.22" allow="private emergency authority army vip passenger hov taxi bus coach delivery truck trailer motorcycle evehicle custom1 custom2" oneway="1"/>

    <edge id=":10243921936_0" function="internal">
        <lane id=":10243921936_0_0" index="0" allow="private emergency authority army vip passenger hov taxi bus coach delivery truck trailer motorcycle evehicle custom1 custom2" speed="18.05" length="27.26" shape="2057.05,8985.21 2059.76,8979.23 2062.19,8974.07 2064.55,8968.17 2067.07,8960.00"/>
        <lane id=":10243921936_0_1" index="1" allow="private emergency authority army vip passenger hov taxi bus coach delivery truck trailer motorcycle evehicle custom1 custom2" speed="18.05" length="27.26" shape="2060.09,8986.23 2062.81,8980.24 2065.24,8975.03 2067.62,8969.08 2070.16,8960.85"/>
    </edge>
    <edge id=":10243921936_2" function="internal">
        <lane id=":10243921936_2_0" index="0" allow="private emergency authority army vip passenger hov taxi bus coach delivery truck trailer motorcycle evehicle custom1 custom2" speed="16.66" length="27.40" shape="2063.36,8987.22 2064.94,8983.05 2067.43,8977.60 2070.36,8970.57 2073.25,8961.69"/>
    </edge>
    <edge id=":10243921944_0" function="internal">
        <lane id=":10243921944_0_0" index="0" allow="private emergency authority army vip passenger hov taxi bus coach delivery truck trailer motorcycle evehicle custom1 custom2" speed="30.56" length="81.77" shape="2109.84,8832.35 2107.55,8750.61"/>
        <lane id=":10243921944_0_1" index="1" allow="private emergency authority army vip passenger hov taxi bus coach delivery truck trailer motorcycle evehicle custom1 custom2" speed="30.56" length="81.77" shape="2113.04,8832.26 2110.75,8750.52"/>
        <lane id=":10243921944_0_2" index="2" allow="private emergency authority army vip passenger hov taxi bus coach delivery truck trailer motorcycle evehicle custom1 custom2" speed="30.56" length="81.77" shape="2116.23,8832.17 2113.95,8750.43"/>
        <lane id=":10243921944_0_3" index="3" allow="private emergency authority army vip passenger hov taxi bus coach delivery truck trailer motorcycle evehicle custom1 custom2" speed="30.56" length="81.77" shape="2119.43,8832.08 2117.15,8750.34"/>
    </edge>
    <edge id=":10243921944_4" function="internal">
        <lane id=":10243921944_4_0" index="0" allow="private emergency authority army vip passenger hov taxi bus coach delivery truck trailer motorcycle evehicle custom1 custom2" speed="26.39" length="82.02" shape="2099.22,8831.86 2101.91,8815.78 2104.76,8793.23 2106.92,8769.68 2107.55,8750.61"/>
        <lane id=":10243921944_4_1" index="1" allow="private emergency authority army vip passenger hov taxi bus coach delivery truck trailer motorcycle evehicle custom1 custom2" speed="26.39" length="82.02" shape="2102.45,8832.04 2105.13,8815.92 2107.97,8793.27 2110.13,8769.63 2110.75,8750.52"/>
        <lane id=":10243921944_4_2" index="2" allow="private emergency authority army vip passenger hov taxi bus coach delivery truck trailer motorcycle evehicle custom1 custom2" speed="26.39" length="82.02" shape="2105.69,8832.22 2108.36,8816.06 2111.19,8793.32 2113.33,8769.58 2113.95,8750.43"/>
    </edge>
    <edge id=":10243923542_0" function="internal">
        <lane id=":10243923542_0_0" index="0" allow="private emergency authority army vip passenger hov taxi bus coach delivery truck trailer motorcycle evehicle custom1 custom2" speed="13.89" length="19.51" shape="2214.39,9339.18 2211.49,9344.14 2209.39,9347.49 2207.61,9350.98 2205.67,9356.35"/>
        <lane id=":10243923542_0_1" index="1" allow="private emergency authority army vip passenger hov taxi bus coach delivery truck trailer motorcycle evehicle custom1 custom2" speed="13.89" length="19.51" shape="2211.46,9337.86 2208.51,9342.92 2206.39,9346.35 2204.59,9349.91 2202.62,9355.38"/>
    </edge>
    <edge id=":10243923542_2" function="internal">
        <lane id=":10243923542_2_0" index="0" allow="private emergency authority army vip passenger hov taxi bus coach delivery truck trailer motorcycle evehicle custom1 custom2" speed="12.50" length="19.81" shape="2208.18,9336.63 2206.64,9340.10 2204.45,9343.78 2201.97,9348.34 2199.57,9354.42"/>
    </edge>
    <edge id=":10243923560_0" function="internal">
        <lane id=":10243923560_0_0" index="0" allow="private emergency authority army vip passenger hov taxi bus coach delivery truck trailer motorcycle evehicle custom1 custom2" speed="16.64" length="14.90" shape="2161.83,9626.93 2159.42,9630.37 2157.50,9632.72 2156.24,9635.23 2155.83,9639.20"/>
        <lane id=":10243923560_0_1" index="1" allow="private emergency authority army vip passenger hov taxi bus coach delivery truck trailer motorcycle evehicle custom1 custom2" speed="17.61" length="14.90" shape="2159.07,9625.32 2156.41,9629.21 2154.35,9631.89 2153.04,9634.77 2152.63,9639.25"/>
    </edge>
    <edge id=":10243923560_2" function="internal">
        <lane id=":10243923560_2_0" index="0" allow="private emergency authority army vip passenger hov taxi bus coach delivery truck trailer motorcycle evehicle custom1 custom2" speed="30.56" length="15.49" shape="2155.65,9623.74 2155.83,9639.20"/>
        <lane id=":10243923560_2_1" index="1" allow="private emergency authority army vip passenger hov taxi bus coach delivery truck trailer motorcycle evehicle custom1 custom2" speed="30.56" length="15.49" shape="2152.45,9623.77 2152.63,9639.25"/>
        <lane id=":10243923560_2_2" index="2" allow="private emergency authority army vip passenger hov taxi bus coach delivery truck trailer motorcycle evehicle custom1 custom2" speed="30.56" length="15.49" shape="2149.26,9623.80 2149.43,9639.31"/>
        <lane id=":10243923560_2_3" index="3" allow="private emergency authority army vip passenger hov taxi bus coach delivery truck trailer motorcycle evehicle custom1 custom2" speed="30.56" length="15.49" shape="2146.06,9623.83 2146.24,9639.36"/>
    </edge>
    <edge id=":10243923563_0" function="internal">
        <lane id=":10243923563_0_0" index="0" allow="private emergency authority army vip passenger hov taxi bus coach delivery truck trailer motorcycle evehicle custom1 custom2" speed="18.05" length="17.29" shape="2107.56,9566.04 2106.62,9560.49 2105.59,9556.25 2104.52,9552.72 2103.47,9549.27"/>
    </edge>
    <edge id=":10243923563_1" function="internal">
        <lane id=":10243923563_1_0" index="0" allow="private emergency authority army vip passenger hov taxi bus coach delivery truck trailer motorcycle evehicle custom1 custom2" speed="16.66" length="17.30" shape="2107.56,9566.04 2107.11,9560.90 2107.24,9557.36 2107.52,9553.80 2107.52,9548.63"/>
        <lane id=":10243923563_1_1" index="1" allow="private emergency authority army vip passenger hov taxi bus coach delivery truck trailer motorcycle evehicle custom1 custom2" speed="16.66" length="17.30" shape="2110.73,9565.61 2110.30,9560.56 2110.43,9557.08 2110.71,9553.58 2110.72,9548.49"/>
    </edge>
    <edge id=":10243923577_0" function="internal">
        <lane id=":10243923577_0_0" index="0" allow="private emergency authority army vip passenger hov taxi bus coach delivery truck trailer motorcycle evehicle custom1 custom2" speed="11.11" length="0.26" shape="2088.03,9010.23 2088.21,9009.88"/>
        <lane id=":10243923577_0_1" index="1" allow="private emergency authority army vip passenger hov taxi bus coach delivery truck trailer motorcycle evehicle custom1 custom2" speed="11.11" length="0.26" shape="2090.92,9011.59 2090.98,9011.47"/>
    </edge>
    <edge id=":10243923585_0" function="internal">
        <lane id=":10243923585_0_0" index="0" allow="private emergency authority army vip passenger hov taxi bus coach delivery truck trailer motorcycle evehicle custom1 custom2" speed="11.11" length="0.40" shape="2205.82,8942.11 2206.00,8942.10 2206.12,8942.10 2206.24,8942.11 2206.42,8942.12"/>
        <lane id=":10243923585_0_1" index="1" allow="private emergency authority army vip passenger hov taxi bus coach delivery truck trailer motorcycle evehicle custom1 custom2" speed="11.11" length="0.40" shape="2205.98,8945.31 2206.04,8945.31 2206.08,8945.30 2206.12,8945.31 2206.18,8945.31"/>
    </edge>
    <edge id=":10243923594_0" function="internal">
        <lane id=":10243923594_0_0" index="0" allow="private emergency authority army vip passenger hov taxi bus coach delivery truck trailer motorcycle evehicle custom1 custom2" speed="13.89" length="4.16" shape="2336.19,8990.23 2336.96,8991.17 2337.34,8991.93 2337.68,8992.72 2338.32,8993.77"/>
    </edge>
    <edge id=":10243923594_1" function="internal">
        <lane id=":10243923594_1_0" index="0" allow="private emergency authority army vip passenger hov taxi bus coach delivery truck trailer motorcycle evehicle custom1 custom2" speed="12.50" length="6.23" shape="2331.76,8990.74 2333.15,8992.00 2333.96,8993.00 2334.67,8994.10 2335.74,8995.66"/>
        <lane id=":10243923594_1_1" index="1" allow="private emergency authority army vip passenger hov taxi bus coach delivery truck trailer motorcycle evehicle custom1 custom2" speed="12.50" length="6.23" shape="2329.30,8992.86 2330.63,8994.06 2331.43,8995.01 2332.12,8996.05 2333.15,8997.55"/>
    </edge>
    <edge id=":10243923606_0" function="internal">
        <lane id=":10243923606_0_0" index="0" allow="private emergency authority army vip passenger hov taxi bus coach delivery truck trailer motorcycle evehicle custom1 custom2" speed="13.89" length="8.71" shape="2836.68,9258.34 2839.17,9258.34 2840.89,9257.58 2842.61,9256.86 2845.08,9256.95"/>
    </edge>
    <edge id=":10243923615_0" function="internal">
        <lane id=":10243923615_0_0" index="0" allow="private emergency authority army vip passenger hov taxi bus coach delivery truck trailer motorcycle evehicle custom1 custom2" speed="13.89" length="8.20" shape="2614.28,9211.12 2616.65,9211.41 2618.32,9211.21 2620.00,9211.01 2622.39,9211.24"/>
        <lane id=":10243923615_0_1" index="1" allow="private emergency authority army vip passenger hov taxi bus coach delivery truck trailer motorcycle evehicle custom1 custom2" speed="13.89" length="8.20" shape="2613.56,9214.24 2615.96,9214.53 2617.64,9214.34 2619.33,9214.14 2621.74,9214.38"/>
    </edge>
    <edge id=":10243923626_0" function="internal">
        <lane id=":10243923626_0_0" index="0" allow="private emergency authority army vip passenger hov taxi bus coach delivery truck trailer motorcycle evehicle custom1 custom2" speed="13.89" length="42.79" shape="2155.76,8640.16 2156.63,8648.20 2158.44,8661.38 2160.38,8674.55 2161.66,8682.54"/>
    </edge>
    <edge id=":10243923626_1" function="internal">
        <lane id=":10243923626_1_0" index="0" allow="private emergency authority army vip passenger hov taxi bus coach delivery truck trailer motorcycle evehicle custom1 custom2" speed="12.50" length="42.82" shape="2155.76,8640.16 2157.94,8682.87"/>
        <lane id=":10243923626_1_1" index="1" allow="private emergency authority army vip passenger hov taxi bus coach delivery truck trailer motorcycle evehicle custom1 custom2" speed="12.50" length="42.82" shape="2155.76,8640.16 2154.74,8683.03"/>
    </edge>
    <edge id=":10243923654_0" function="internal">
        <lane id=":10243923654_0_0" index="0" allow="private emergency authority army vip passenger hov taxi bus coach delivery truck trailer motorcycle evehicle custom1 custom2" speed="13.89" length="42.31" shape="1920.08,9341.22 1893.18,9308.56"/>
    </edge>
    <edge id=":10243923654_1" function="internal">
        <lane id=":10243923654_1_0" index="0" allow="private emergency authority army vip passenger hov taxi bus coach delivery truck trailer motorcycle evehicle custom1 custom2" speed="12.50" length="42.23" shape="1922.89,9338.80 1915.92,9332.42 1907.48,9324.20 1899.31,9315.72 1893.18,9308.56"/>
        <lane id=":10243923654_1_1" index="1" allow="private emergency authority army vip passenger hov taxi bus coach delivery truck trailer motorcycle evehicle custom1 custom2" speed="12.50" length="42.23" shape="1925.19,9336.57 1918.26,9330.23 1909.90,9322.12 1901.82,9313.74 1895.73,9306.63"/>
    </edge>
    <edge id=":10243923664_0" function="internal">
        <lane id=":10243923664_0_0" index="0" allow="private emergency authority army vip passenger hov taxi bus coach delivery truck trailer motorcycle evehicle custom1 custom2" speed="11.11" length="0.30" shape="2091.91,9355.28 2091.87,9354.98"/>
        <lane id=":10243923664_0_1" index="1" allow="private emergency authority army vip passenger hov taxi bus coach delivery truck trailer motorcycle evehicle custom1 custom2" speed="11.11" length="0.30" shape="2095.09,9354.86 2095.05,9354.56"/>
    </edge>
    <edge id=":10243923665_0" function="internal">
        <lane id=":10243923665_0_0" index="0" allow="private emergency authority army vip passenger hov taxi bus coach delivery truck trailer motorcycle evehicle custom1 custom2" speed="11.11" length="0.30" shape="2097.75,9399.31 2097.71,9399.01"/>
        <lane id=":10243923665_0_1" index="1" allow="private emergency authority army vip passenger hov taxi bus coach delivery truck trailer motorcycle evehicle custom1 custom2" speed="11.11" length="0.30" shape="2100.93,9398.89 2100.89,9398.59"/>
    </edge>
    <edge id=":10243923678_0" function="internal">
        <lane id=":10243923678_0_0" index="0" allow="private emergency authority army vip passenger hov taxi bus coach delivery truck trailer motorcycle evehicle custom1 custom2" speed="27.78" length="0.30" shape="2637.48,9262.66 2637.24,9262.61"/>
        <lane id=":10243923678_0_1" index="1" allow="private emergency authority army vip passenger hov taxi bus coach delivery truck trailer motorcycle evehicle custom1 custom2" speed="27.78" length="0.30" shape="2638.10,9259.52 2637.84,9259.47"/>
        <lane id=":10243923678_0_2" index="2" allow="private emergency authority army vip passenger hov taxi bus coach delivery truck trailer motorcycle evehicle custom1 custom2" speed="27.78" length="0.30" shape="2638.73,9256.38 2638.43,9256.32"/>
        <lane id=":10243923678_0_3" index="3" allow="private emergency authority army vip passenger hov taxi bus coach delivery truck trailer motorcycle evehicle custom1 custom2" speed="27.78" length="0.30" shape="2639.35,9253.24 2639.03,9253.18"/>
        <lane id=":10243923678_0_4" index="4" allow="private emergency authority army vip passenger hov taxi bus coach delivery truck trailer motorcycle evehicle custom1 custom2" speed="27.78" length="0.30" shape="2639.97,9250.10 2639.63,9250.03"/>
    </edge>
    <edge id=":1817710515_0" function="internal">
        <lane id=":1817710515_0_0" index="0" allow="private emergency authority army vip passenger hov taxi bus coach delivery truck trailer motorcycle evehicle custom1 custom2" speed="30.56" length="8.21" shape="2105.79,8476.02 2105.54,8473.64 2104.98,8472.06 2104.42,8470.47 2104.14,8468.10"/>
        <lane id=":1817710515_0_1" index="1" allow="private emergency authority army vip passenger hov taxi bus coach delivery truck trailer motorcycle evehicle custom1 custom2" speed="30.56" length="8.21" shape="2108.99,8476.02 2108.74,8473.63 2108.18,8472.04 2107.62,8470.45 2107.34,8468.06"/>
        <lane id=":1817710515_0_2" index="2" allow="private emergency authority army vip passenger hov taxi bus coach delivery truck trailer motorcycle evehicle custom1 custom2" speed="30.56" length="8.21" shape="2112.19,8476.02 2111.94,8473.62 2111.38,8472.02 2110.82,8470.42 2110.54,8468.02"/>
        <lane id=":1817710515_0_3" index="3" allow="private emergency authority army vip passenger hov taxi bus coach delivery truck trailer motorcycle evehicle custom1 custom2" speed="30.56" length="8.21" shape="2115.39,8476.02 2115.14,8473.61 2114.58,8472.00 2114.02,8470.39 2113.74,8467.99"/>
        <lane id=":1817710515_0_4" index="4" allow="private emergency authority army vip passenger hov taxi bus coach delivery truck trailer motorcycle evehicle custom1 custom2" speed="30.56" length="8.21" shape="2115.39,8476.02 2115.64,8473.60 2116.18,8471.98 2116.72,8470.36 2116.94,8467.95"/>
    </edge>
    <edge id=":1817735639_0" function="internal">
        <lane id=":1817735639_0_0" index="0" allow="private emergency authority army vip passenger hov taxi bus coach delivery truck trailer motorcycle evehicle custom1 custom2" speed="27.78" length="0.53" shape="1641.52,9159.63 1641.17,9159.63"/>
        <lane id=":1817735639_0_1" index="1" allow="private emergency authority army vip passenger hov taxi bus coach delivery truck trailer motorcycle evehicle custom1 custom2" speed="27.78" length="0.53" shape="1641.54,9156.43 1641.10,9156.43"/>
        <lane id=":1817735639_0_2" index="2" allow="private emergency authority army vip passenger hov taxi bus coach delivery truck trailer motorcycle evehicle custom1 custom2" speed="27.78" length="0.53" shape="1641.56,9153.23 1641.04,9153.24"/>
        <lane id=":1817735639_0_3" index="3" allow="private emergency authority army vip passenger hov taxi bus coach delivery truck trailer motorcycle evehicle custom1 custom2" speed="27.78" length="0.53" shape="1641.59,9150.03 1640.97,9150.04"/>
        <lane id=":1817735639_0_4" index="4" allow="private emergency authority army vip passenger hov taxi bus coach delivery truck trailer motorcycle evehicle custom1 custom2" speed="27.78" length="0.53" shape="1641.61,9146.83 1640.90,9146.84"/>
    </edge>
    <edge id=":1817735640_0" function="internal">
        <lane id=":1817735640_0_0" index="0" allow="private emergency authority army vip passenger hov taxi bus coach delivery truck trailer motorcycle evehicle custom1 custom2" speed="27.78" length="8.12" shape="1637.81,9129.03 1640.28,9128.78 1641.95,9128.25 1643.61,9127.76 1646.08,9127.63"/>
        <lane id=":1817735640_0_1" index="1" allow="private emergency authority army vip passenger hov taxi bus coach delivery truck trailer motorcycle evehicle custom1 custom2" speed="27.78" length="8.12" shape="1637.81,9129.03 1640.25,9129.28 1641.87,9129.85 1643.49,9130.46 1645.92,9130.82"/>
        <lane id=":1817735640_0_2" index="2" allow="private emergency authority army vip passenger hov taxi bus coach delivery truck trailer motorcycle evehicle custom1 custom2" speed="27.78" length="8.12" shape="1637.82,9132.23 1640.21,9132.48 1641.80,9133.05 1643.38,9133.66 1645.77,9134.02"/>
        <lane id=":1817735640_0_3" index="3" allow="private emergency authority army vip passenger hov taxi bus coach delivery truck trailer motorcycle evehicle custom1 custom2" speed="27.78" length="8.12" shape="1637.82,9135.43 1640.16,9135.68 1641.72,9136.25 1643.28,9136.86 1645.62,9137.22"/>
        <lane id=":1817735640_0_4" index="4" allow="private emergency authority army vip passenger hov taxi bus coach delivery truck trailer motorcycle evehicle custom1 custom2" speed="27.78" length="8.12" shape="1637.82,9138.63 1640.12,9138.88 1641.65,9139.45 1643.17,9140.06 1645.47,9140.41"/>
        <lane id=":1817735640_0_5" index="5" allow="private emergency authority army vip passenger hov taxi bus coach delivery truck trailer motorcycle evehicle custom1 custom2" speed="27.78" length="8.12" shape="1637.83,9141.83 1640.08,9142.08 1641.57,9142.65 1643.06,9143.25 1645.31,9143.61"/>
    </edge>
    <edge id=":2164982311_0" function="internal">
        <lane id=":2164982311_0_0" index="0" allow="private emergency authority army vip passenger hov taxi bus coach delivery truck trailer motorcycle evehicle custom1 custom2" speed="27.78" length="8.79" shape="3489.18,9284.39 3491.48,9283.52 3492.78,9282.19 3494.06,9280.82 3496.35,9279.86"/>
        <lane id=":2164982311_0_1" index="1" allow="private emergency authority army vip passenger hov taxi bus coach delivery truck trailer motorcycle evehicle custom1 custom2" speed="27.78" length="8.79" shape="3489.68,9287.55 3492.01,9286.67 3493.34,9285.34 3494.65,9283.97 3496.97,9283.00"/>
        <lane id=":2164982311_0_2" index="2" allow="private emergency authority army vip passenger hov taxi bus coach delivery truck trailer motorcycle evehicle custom1 custom2" speed="27.78" length="8.79" shape="3490.17,9290.71 3492.55,9289.83 3493.90,9288.49 3495.24,9287.11 3497.60,9286.14"/>
    </edge>
    <edge id=":2821340845_0" function="internal">
        <lane id=":2821340845_0_0" index="0" allow="private emergency authority army vip passenger hov taxi bus coach delivery truck trailer motorcycle evehicle custom1 custom2" speed="11.11" length="0.21" shape="2252.33,9159.84 2252.53,9159.83"/>
    </edge>
    <edge id=":2821340848_0" function="internal">
        <lane id=":2821340848_0_0" index="0" allow="private emergency authority army vip passenger hov taxi bus coach delivery truck trailer motorcycle evehicle custom1 custom2" speed="27.78" length="8.20" shape="2296.65,9171.07 2299.04,9171.07 2300.67,9170.68 2302.31,9170.29 2304.70,9170.26"/>
        <lane id=":2821340848_0_1" index="1" allow="private emergency authority army vip passenger hov taxi bus coach delivery truck trailer motorcycle evehicle custom1 custom2" speed="27.78" length="8.20" shape="2296.65,9171.07 2298.99,9171.56 2300.52,9172.27 2302.05,9172.98 2304.40,9173.45"/>
        <lane id=":2821340848_0_2" index="2" allow="private emergency authority army vip passenger hov taxi bus coach delivery truck trailer motorcycle evehicle custom1 custom2" speed="27.78" length="8.20" shape="2296.31,9174.25 2298.67,9174.75 2300.20,9175.46 2301.74,9176.16 2304.10,9176.63"/>
        <lane id=":2821340848_0_3" index="3" allow="private emergency authority army vip passenger hov taxi bus coach delivery truck trailer motorcycle evehicle custom1 custom2" speed="27.78" length="8.20" shape="2295.98,9177.43 2298.34,9177.93 2299.89,9178.64 2301.43,9179.35 2303.80,9179.82"/>
        <lane id=":2821340848_0_4" index="4" allow="private emergency authority army vip passenger hov taxi bus coach delivery truck trailer motorcycle evehicle custom1 custom2" speed="27.78" length="8.20" shape="2295.64,9180.61 2298.02,9181.11 2299.57,9181.83 2301.12,9182.53 2303.50,9183.01"/>
    </edge>
    <edge id=":3659968320_0" function="internal">
        <lane id=":3659968320_0_0" index="0" allow="private emergency authority army vip passenger hov taxi bus coach delivery truck trailer motorcycle evehicle custom1 custom2" speed="20.84" length="19.51" shape="2976.40,9284.55 2979.80,9286.34 2983.57,9288.34 2988.28,9290.12 2994.54,9291.23"/>
    </edge>
    <edge id=":3659968320_1" function="internal">
        <lane id=":3659968320_1_0" index="0" allow="private emergency authority army vip passenger hov taxi bus coach delivery truck trailer motorcycle evehicle custom1 custom2" speed="27.78" length="19.63" shape="2975.22,9288.79 2994.54,9291.23"/>
        <lane id=":3659968320_1_1" index="1" allow="private emergency authority army vip passenger hov taxi bus coach delivery truck trailer motorcycle evehicle custom1 custom2" speed="27.78" length="19.63" shape="2974.86,9291.97 2994.26,9294.42"/>
        <lane id=":3659968320_1_2" index="2" allow="private emergency authority army vip passenger hov taxi bus coach delivery truck trailer motorcycle evehicle custom1 custom2" speed="27.78" length="19.63" shape="2974.50,9295.15 2993.97,9297.61"/>
        <lane id=":3659968320_1_3" index="3" allow="private emergency authority army vip passenger hov taxi bus coach delivery truck trailer motorcycle evehicle custom1 custom2" speed="27.78" length="19.63" shape="2974.13,9298.33 2993.69,9300.80"/>
        <lane id=":3659968320_1_4" index="4" allow="private emergency authority army vip passenger hov taxi bus coach delivery truck trailer motorcycle evehicle custom1 custom2" speed="27.78" length="19.63" shape="2973.77,9301.51 2993.40,9303.98"/>
    </edge>
    <edge id=":4088599357_0" function="internal">
        <lane id=":4088599357_0_0" index="0" allow="private emergency authority army vip passenger hov taxi bus coach delivery truck trailer motorcycle evehicle custom1 custom2" speed="12.50" length="3.24" shape="2000.60,9182.95 1999.71,9183.27 1999.06,9183.36 1998.38,9183.37 1997.42,9183.44"/>
    </edge>
    <edge id=":436210017_0" function="internal">
        <lane id=":436210017_0_0" index="0" allow="private emergency authority army vip passenger hov taxi bus coach delivery truck trailer motorcycle evehicle custom1 custom2" speed="26.39" length="71.59" shape="2129.90,9735.77 2128.65,9717.63 2126.05,9696.47 2123.22,9677.20 2121.30,9664.74"/>
        <lane id=":436210017_0_1" index="1" allow="private emergency authority army vip passenger hov taxi bus coach delivery truck trailer motorcycle evehicle custom1 custom2" speed="26.39" length="71.59" shape="2129.90,9735.77 2129.15,9717.57 2127.64,9696.30 2125.90,9676.91 2124.49,9664.39"/>
    </edge>
    <edge id=":436210017_2" function="internal">
        <lane id=":436210017_2_0" index="0" allow="private emergency authority army vip passenger hov taxi bus coach delivery truck trailer motorcycle evehicle custom1 custom2" speed="30.56" length="71.69" shape="2129.90,9735.77 2128.17,9664.15"/>
        <lane id=":436210017_2_1" index="1" allow="private emergency authority army vip passenger hov taxi bus coach delivery truck trailer motorcycle evehicle custom1 custom2" speed="30.56" length="71.69" shape="2133.10,9735.73 2131.37,9664.08"/>
        <lane id=":436210017_2_2" index="2" allow="private emergency authority army vip passenger hov taxi bus coach delivery truck trailer motorcycle evehicle custom1 custom2" speed="30.56" length="71.69" shape="2136.30,9735.69 2134.57,9664.01"/>
        <lane id=":436210017_2_3" index="3" allow="private emergency authority army vip passenger hov taxi bus coach delivery truck trailer motorcycle evehicle custom1 custom2" speed="30.56" length="71.69" shape="2139.50,9735.66 2137.77,9663.95"/>
    </edge>
    <edge id=":436210077_0" function="internal">
        <lane id=":436210077_0_0" index="0" allow="private emergency authority army vip passenger hov taxi bus coach delivery truck trailer motorcycle evehicle custom1 custom2" speed="20.84" length="46.51" shape="1723.80,9168.30 1715.85,9166.09 1706.13,9163.35 1693.93,9160.98 1678.52,9159.91"/>
        <lane id=":436210077_0_1" index="1" allow="private emergency authority army vip passenger hov taxi bus coach delivery truck trailer motorcycle evehicle custom1 custom2" speed="20.84" length="46.51" shape="1724.39,9165.15 1716.39,9162.93 1706.55,9160.17 1694.17,9157.79 1678.54,9156.71"/>
    </edge>
    <edge id=":436210077_2" function="internal">
        <lane id=":436210077_2_0" index="0" allow="private emergency authority army vip passenger hov taxi bus coach delivery truck trailer motorcycle evehicle custom1 custom2" speed="27.78" length="46.72" shape="1724.85,9161.29 1678.54,9156.71"/>
        <lane id=":436210077_2_1" index="1" allow="private emergency authority army vip passenger hov taxi bus coach delivery truck trailer motorcycle evehicle custom1 custom2" speed="27.78" length="46.72" shape="1725.00,9158.09 1678.56,9153.51"/>
        <lane id=":436210077_2_2" index="2" allow="private emergency authority army vip passenger hov taxi bus coach delivery truck trailer motorcycle evehicle custom1 custom2" speed="27.78" length="46.72" shape="1725.14,9154.89 1678.59,9150.31"/>
        <lane id=":436210077_2_3" index="3" allow="private emergency authority army vip passenger hov taxi bus coach delivery truck trailer motorcycle evehicle custom1 custom2" speed="27.78" length="46.72" shape="1725.29,9151.70 1678.61,9147.11"/>
    </edge>
    <edge id=":436210107_0" function="internal">
        <lane id=":436210107_0_0" index="0" allow="private emergency authority army vip passenger hov taxi bus coach delivery truck trailer motorcycle evehicle custom1 custom2" speed="27.78" length="0.42" shape="2621.00,9227.14 2621.27,9227.19"/>
        <lane id=":436210107_0_1" index="1" allow="private emergency authority army vip passenger hov taxi bus coach delivery truck trailer motorcycle evehicle custom1 custom2" speed="27.78" length="0.42" shape="2620.43,9230.29 2620.77,9230.35"/>