<?xml version="1.0" encoding="UTF-8"?>

<!-- generated on 2023-12-29 16:53:09 by Eclipse SUMO netedit Version 1.18.0
<configuration xmlns:xsi="http://www.w3.org/2001/XMLSchema-instance" xsi:noNamespaceSchemaLocation="http://sumo.dlr.de/xsd/neteditConfiguration.xsd">

    <input>
        <sumo-net-file value="C:\Users\TLSYSLAB_3_ADMIN\Documents\Git\TIL_1hour\SUMO\gogang\gogang.net.xml"/>
    </input>

    <output>
        <output-file value="C:\Users\TLSYSLAB_3_ADMIN\Documents\Git\TIL_1hour\SUMO\gogang\gogang.net.xml"/>
    </output>

    <processing>
        <geometry.min-radius.fix.railways value="false"/>
        <geometry.max-grade.fix value="false"/>
        <offset.disable-normalization value="true"/>
        <lefthand value="0"/>
    </processing>

    <junctions>
        <no-turnarounds value="true"/>
        <junctions.corner-detail value="5"/>
        <junctions.limit-turn-speed value="5.50"/>
        <rectangular-lane-cut value="0"/>
    </junctions>

    <pedestrian>
        <walkingareas value="0"/>
    </pedestrian>

</configuration>
-->

<net version="1.16" junctionCornerDetail="5" limitTurnSpeed="5.50" xmlns:xsi="http://www.w3.org/2001/XMLSchema-instance" xsi:noNamespaceSchemaLocation="http://sumo.dlr.de/xsd/net_file.xsd">

    <location netOffset="-306524.14,-4155734.69" convBoundary="0.00,0.00,1071.90,1865.84" origBoundary="126.807231,37.447950,126.853104,37.579512" projParameter="+proj=utm +zone=52 +ellps=WGS84 +datum=WGS84 +units=m +no_defs"/>

    <type id="highway.tertiary" priority="10" numLanes="1" speed="22.22" disallow="tram rail_urban rail rail_electric rail_fast ship" oneway="0"/>
    <type id="highway.tertiary_link" priority="5" numLanes="1" speed="22.22" disallow="tram rail_urban rail rail_electric rail_fast ship" oneway="0"/>

    <edge id=":1253429215_0" function="internal">
        <lane id=":1253429215_0_0" index="0" disallow="tram rail_urban rail rail_electric rail_fast ship" speed="22.22" length="16.68" shape="532.50,902.02 528.47,885.55"/>
        <lane id=":1253429215_0_1" index="1" disallow="tram rail_urban rail rail_electric rail_fast ship" speed="22.22" length="16.68" shape="535.53,900.89 531.62,884.98"/>
    </edge>
    <edge id=":1253429215_2" function="internal">
        <lane id=":1253429215_2_0" index="0" disallow="tram rail_urban rail rail_electric rail_fast ship" speed="22.22" length="15.24" shape="537.91,883.83 538.88,888.61 539.80,892.21 540.83,895.26 542.10,898.44"/>
    </edge>
    <edge id=":1253429215_3" function="internal">
        <lane id=":1253429215_3_0" index="0" disallow="tram rail_urban rail rail_electric rail_fast ship" speed="22.22" length="15.49" shape="537.91,883.83 539.31,888.08 541.18,890.68 543.08,893.28 544.62,897.50"/>
        <lane id=":1253429215_3_1" index="1" disallow="tram rail_urban rail rail_electric rail_fast ship" speed="22.22" length="15.49" shape="537.91,883.83 541.59,898.63"/>
        <lane id=":1253429215_3_2" index="2" disallow="tram rail_urban rail rail_electric rail_fast ship" speed="22.22" length="15.49" shape="534.77,884.40 538.56,899.76"/>
    </edge>
    <edge id=":1253429215_6" function="internal">
        <lane id=":1253429215_6_0" index="0" disallow="tram rail_urban rail rail_electric rail_fast ship" speed="22.22" length="17.08" shape="528.24,902.55 528.65,898.96 529.07,895.31 529.13,891.03 528.47,885.55"/>
    </edge>
    <edge id=":2347375075_0" function="internal">
        <lane id=":2347375075_0_0" index="0" disallow="tram rail_urban rail rail_electric rail_fast ship" speed="22.22" length="0.30" shape="501.36,1037.84 501.07,1037.71"/>
        <lane id=":2347375075_0_1" index="1" disallow="tram rail_urban rail rail_electric rail_fast ship" speed="22.22" length="0.30" shape="502.70,1034.93 502.42,1034.81"/>
        <lane id=":2347375075_0_2" index="2" disallow="tram rail_urban rail rail_electric rail_fast ship" speed="22.22" length="0.30" shape="504.03,1032.03 503.78,1031.91"/>
    </edge>
    <edge id=":2347375076_0" function="internal">
        <lane id=":2347375076_0_0" index="0" disallow="tram rail_urban rail rail_electric rail_fast ship" speed="22.22" length="0.30" shape="610.49,1088.06 610.22,1087.93"/>
        <lane id=":2347375076_0_1" index="1" disallow="tram rail_urban rail rail_electric rail_fast ship" speed="22.22" length="0.30" shape="611.83,1085.15 611.55,1085.03"/>
        <lane id=":2347375076_0_2" index="2" disallow="tram rail_urban rail rail_electric rail_fast ship" speed="22.22" length="0.30" shape="613.16,1082.25 612.89,1082.12"/>
    </edge>
    <edge id=":2347375079_0" function="internal">
        <lane id=":2347375079_0_0" index="0" disallow="tram rail_urban rail rail_electric rail_fast ship" speed="22.22" length="21.57" shape="426.35,965.94 432.88,969.03 438.06,971.55 442.34,973.38 446.13,974.40"/>
    </edge>
    <edge id=":2347375079_1" function="internal">
        <lane id=":2347375079_1_0" index="0" disallow="tram rail_urban rail rail_electric rail_fast ship" speed="22.22" length="20.26" shape="425.03,968.85 443.34,977.58"/>
        <lane id=":2347375079_1_1" index="1" disallow="tram rail_urban rail rail_electric rail_fast ship" speed="22.22" length="20.26" shape="423.71,971.76 441.97,980.47"/>
    </edge>
    <edge id=":2347375094_0" function="internal">
        <lane id=":2347375094_0_0" index="0" disallow="tram rail_urban rail rail_electric rail_fast ship" speed="3.66" length="4.13" shape="563.14,1054.31 567.03,1052.91"/>
    </edge>
    <edge id=":2347375094_1" function="internal">
        <lane id=":2347375094_1_0" index="0" disallow="tram rail_urban rail rail_electric rail_fast ship" speed="9.86" length="24.62" shape="563.14,1054.31 560.52,1051.16 555.99,1050.42 549.55,1052.08 541.20,1056.13"/>
    </edge>
    <edge id=":2347375094_2" function="internal">
        <lane id=":2347375094_2_0" index="0" disallow="tram rail_urban rail rail_electric rail_fast ship" speed="22.22" length="37.00" shape="563.14,1054.31 560.16,1046.91 556.94,1038.62 554.04,1029.29 552.03,1018.77"/>
        <lane id=":2347375094_2_1" index="1" disallow="tram rail_urban rail rail_electric rail_fast ship" speed="22.22" length="37.00" shape="566.15,1053.23 563.19,1045.93 560.03,1037.88 557.19,1028.79 555.21,1018.38"/>
    </edge>
    <edge id=":2347375094_4" function="internal">
        <lane id=":2347375094_4_0" index="0" disallow="tram rail_urban rail rail_electric rail_fast ship" speed="7.67" length="14.84" shape="566.15,1053.23 564.14,1046.09 564.70,1041.94 567.73,1040.81"/>
    </edge>
    <edge id=":2347375094_23" function="internal">
        <lane id=":2347375094_23_0" index="0" disallow="tram rail_urban rail rail_electric rail_fast ship" speed="7.67" length="6.09" shape="567.73,1040.81 567.83,1040.77 573.53,1042.58"/>
    </edge>
    <edge id=":2347375094_5" function="internal">
        <lane id=":2347375094_5_0" index="0" disallow="tram rail_urban rail rail_electric rail_fast ship" speed="13.58" length="24.37" shape="567.91,1016.81 569.31,1026.04 570.94,1032.92 572.80,1037.47 574.90,1039.68"/>
    </edge>
    <edge id=":2347375094_6" function="internal">
        <lane id=":2347375094_6_0" index="0" disallow="tram rail_urban rail rail_electric rail_fast ship" speed="22.22" length="36.95" shape="567.91,1016.81 568.67,1027.90 568.21,1035.96 567.37,1043.46 567.03,1052.91"/>
        <lane id=":2347375094_6_1" index="1" disallow="tram rail_urban rail rail_electric rail_fast ship" speed="22.22" length="36.95" shape="564.73,1017.20 565.52,1028.57 565.05,1036.87 564.20,1044.54 563.84,1054.06"/>
        <lane id=":2347375094_6_2" index="2" disallow="tram rail_urban rail rail_electric rail_fast ship" speed="22.22" length="36.95" shape="561.56,1017.59 562.36,1029.24 561.88,1037.78 561.02,1045.63 560.66,1055.20"/>
    </edge>
    <edge id=":2347375094_9" function="internal">
        <lane id=":2347375094_9_0" index="0" disallow="tram rail_urban rail rail_electric rail_fast ship" speed="16.48" length="14.59" shape="558.38,1017.99 558.54,1030.34 557.96,1032.50"/>
    </edge>
    <edge id=":2347375094_10" function="internal">
        <lane id=":2347375094_10_0" index="0" disallow="tram rail_urban rail rail_electric rail_fast ship" speed="3.65" length="1.44" shape="558.38,1017.99 557.74,1019.28"/>
    </edge>
    <edge id=":2347375094_24" function="internal">
        <lane id=":2347375094_24_0" index="0" disallow="tram rail_urban rail rail_electric rail_fast ship" speed="16.48" length="30.01" shape="557.96,1032.50 555.73,1040.82 549.95,1049.41 541.20,1056.13"/>
    </edge>
    <edge id=":2347375094_25" function="internal">
        <lane id=":2347375094_25_0" index="0" disallow="tram rail_urban rail rail_electric rail_fast ship" speed="3.65" length="3.23" shape="557.74,1019.28 556.99,1019.77 556.15,1019.47 555.21,1018.38"/>
    </edge>
    <edge id=":2347375094_11" function="internal">
        <lane id=":2347375094_11_0" index="0" disallow="tram rail_urban rail rail_electric rail_fast ship" speed="5.63" length="9.29" shape="543.46,1023.07 546.14,1023.93 547.93,1023.57 548.84,1021.98 548.86,1019.17"/>
    </edge>
    <edge id=":2347375094_12" function="internal">
        <lane id=":2347375094_12_0" index="0" disallow="tram rail_urban rail rail_electric rail_fast ship" speed="22.22" length="35.56" shape="543.46,1023.07 574.90,1039.68"/>
        <lane id=":2347375094_12_1" index="1" disallow="tram rail_urban rail rail_electric rail_fast ship" speed="22.22" length="35.56" shape="542.09,1025.97 573.53,1042.58"/>
    </edge>
    <edge id=":2347375094_14" function="internal">
        <lane id=":2347375094_14_0" index="0" disallow="tram rail_urban rail rail_electric rail_fast ship" speed="15.71" length="33.36" shape="542.09,1025.97 551.50,1031.52 558.26,1038.05 562.37,1045.57 563.14,1049.97"/>
        <lane id=":2347375094_14_1" index="1" disallow="tram rail_urban rail rail_electric rail_fast ship" speed="15.16" length="27.92" shape="540.73,1028.86 549.34,1033.99 555.54,1040.08 559.31,1047.16 559.51,1048.33"/>
    </edge>
    <edge id=":2347375094_16" function="internal">
        <lane id=":2347375094_16_0" index="0" disallow="tram rail_urban rail rail_electric rail_fast ship" speed="10.26" length="27.55" shape="540.73,1028.86 548.44,1034.80 551.05,1042.13 548.62,1049.64 547.00,1051.05"/>
    </edge>
    <edge id=":2347375094_26" function="internal">
        <lane id=":2347375094_26_0" index="0" disallow="tram rail_urban rail rail_electric rail_fast ship" speed="15.71" length="4.15" shape="563.14,1049.97 563.84,1054.06"/>
    </edge>
    <edge id=":2347375094_27" function="internal">
        <lane id=":2347375094_27_0" index="0" disallow="tram rail_urban rail rail_electric rail_fast ship" speed="15.16" length="6.97" shape="559.51,1048.33 560.66,1055.20"/>
    </edge>
    <edge id=":2347375094_28" function="internal">
        <lane id=":2347375094_28_0" index="0" disallow="tram rail_urban rail rail_electric rail_fast ship" speed="10.26" length="7.72" shape="547.00,1051.05 541.20,1056.13"/>
    </edge>
    <edge id=":2347375094_17" function="internal">
        <lane id=":2347375094_17_0" index="0" disallow="tram rail_urban rail rail_electric rail_fast ship" speed="5.72" length="9.55" shape="547.12,1048.64 541.20,1056.13"/>
    </edge>
    <edge id=":2347375094_18" function="internal">
        <lane id=":2347375094_18_0" index="0" disallow="tram rail_urban rail rail_electric rail_fast ship" speed="22.22" length="36.55" shape="547.12,1048.64 547.83,1039.87 548.83,1033.86 549.41,1027.88 548.86,1019.17"/>
        <lane id=":2347375094_18_1" index="1" disallow="tram rail_urban rail rail_electric rail_fast ship" speed="22.22" length="36.55" shape="550.00,1059.05 550.83,1046.41 551.93,1036.99 552.58,1028.53 552.03,1018.77"/>
        <lane id=":2347375094_18_2" index="2" disallow="tram rail_urban rail rail_electric rail_fast ship" speed="22.22" length="36.55" shape="553.24,1057.88 554.06,1045.46 555.14,1036.30 555.76,1028.05 555.21,1018.38"/>
    </edge>
    <edge id=":2347375094_21" function="internal">
        <lane id=":2347375094_21_0" index="0" disallow="tram rail_urban rail rail_electric rail_fast ship" speed="9.67" length="9.55" shape="556.48,1056.71 557.73,1048.58 558.40,1047.44"/>
    </edge>
    <edge id=":2347375094_22" function="internal">
        <lane id=":2347375094_22_0" index="0" disallow="tram rail_urban rail rail_electric rail_fast ship" speed="4.12" length="3.25" shape="556.48,1056.71 556.96,1054.77 557.81,1053.87"/>
    </edge>
    <edge id=":2347375094_29" function="internal">
        <lane id=":2347375094_29_0" index="0" disallow="tram rail_urban rail rail_electric rail_fast ship" speed="9.67" length="18.30" shape="558.40,1047.44 560.97,1043.06 566.22,1040.84 573.53,1042.58"/>
    </edge>
    <edge id=":2347375094_30" function="internal">
        <lane id=":2347375094_30_0" index="0" disallow="tram rail_urban rail rail_electric rail_fast ship" speed="4.12" length="3.25" shape="557.81,1053.87 559.05,1054.01 560.66,1055.20"/>
    </edge>
    <edge id=":2347375123_0" function="internal">
        <lane id=":2347375123_0_0" index="0" disallow="tram rail_urban rail rail_electric rail_fast ship" speed="22.22" length="14.70" shape="538.87,1064.69 525.80,1058.02"/>
        <lane id=":2347375123_0_1" index="1" disallow="tram rail_urban rail rail_electric rail_fast ship" speed="22.22" length="14.70" shape="540.30,1061.82 527.18,1055.13"/>
    </edge>
    <edge id=":2347375123_2" function="internal">
        <lane id=":2347375123_2_0" index="0" disallow="tram rail_urban rail rail_electric rail_fast ship" speed="10.87" length="14.41" shape="541.02,1056.23 538.18,1057.28 534.92,1057.45 531.25,1056.73 527.18,1055.13"/>
    </edge>
    <edge id=":2347375164_0" function="internal">
        <lane id=":2347375164_0_0" index="0" disallow="tram rail_urban rail rail_electric rail_fast ship" speed="22.22" length="14.42" shape="510.77,1050.87 497.78,1044.68"/>
        <lane id=":2347375164_0_1" index="1" disallow="tram rail_urban rail rail_electric rail_fast ship" speed="22.22" length="14.42" shape="512.14,1047.98 499.09,1041.76"/>
    </edge>
    <edge id=":2347375164_2" function="internal">
        <lane id=":2347375164_2_0" index="0" disallow="tram rail_urban rail rail_electric rail_fast ship" speed="13.16" length="14.43" shape="513.06,1041.90 509.77,1042.93 506.68,1043.48 503.29,1043.20 499.09,1041.76"/>
    </edge>
    <edge id=":2347375180_0" function="internal">
        <lane id=":2347375180_0_0" index="0" disallow="tram rail_urban rail rail_electric rail_fast ship" speed="22.22" length="14.58" shape="606.39,1096.36 593.25,1090.14"/>
        <lane id=":2347375180_0_1" index="1" disallow="tram rail_urban rail rail_electric rail_fast ship" speed="22.22" length="14.58" shape="607.83,1093.51 594.62,1087.25"/>
    </edge>
    <edge id=":2347375180_2" function="internal">
        <lane id=":2347375180_2_0" index="0" disallow="tram rail_urban rail rail_electric rail_fast ship" speed="13.75" length="14.65" shape="607.83,1093.51 603.99,1091.11 601.57,1088.62 599.98,1085.87 598.59,1082.69"/>
    </edge>
    <edge id=":2347375198_0" function="internal">
        <lane id=":2347375198_0_0" index="0" disallow="tram rail_urban rail rail_electric rail_fast ship" speed="22.22" length="0.30" shape="617.48,1069.37 617.76,1069.50"/>
        <lane id=":2347375198_0_1" index="1" disallow="tram rail_urban rail rail_electric rail_fast ship" speed="22.22" length="0.30" shape="616.12,1072.27 616.39,1072.39"/>
        <lane id=":2347375198_0_2" index="2" disallow="tram rail_urban rail rail_electric rail_fast ship" speed="22.22" length="0.30" shape="614.77,1075.17 615.03,1075.29"/>
    </edge>
    <edge id=":2347375259_0" function="internal">
        <lane id=":2347375259_0_0" index="0" disallow="tram rail_urban rail rail_electric rail_fast ship" speed="22.22" length="3.41" shape="162.55,849.46 164.35,852.32"/>
        <lane id=":2347375259_0_1" index="1" disallow="tram rail_urban rail rail_electric rail_fast ship" speed="22.22" length="3.41" shape="161.18,852.35 163.06,855.24"/>
    </edge>
    <edge id=":2347375259_2" function="internal">
        <lane id=":2347375259_2_0" index="0" disallow="tram rail_urban rail rail_electric rail_fast ship" speed="22.22" length="3.06" shape="159.82,855.24 162.46,856.60"/>
        <lane id=":2347375259_2_1" index="1" disallow="tram rail_urban rail rail_electric rail_fast ship" speed="22.22" length="3.06" shape="158.45,858.13 161.17,859.53"/>
        <lane id=":2347375259_2_2" index="2" disallow="tram rail_urban rail rail_electric rail_fast ship" speed="22.22" length="3.06" shape="157.08,861.03 159.87,862.46"/>
    </edge>
    <edge id=":2347375263_0" function="internal">
        <lane id=":2347375263_0_0" index="0" disallow="tram rail_urban rail rail_electric rail_fast ship" speed="22.22" length="25.43" shape="196.27,903.02 191.06,899.31 186.87,896.11 182.10,892.96 175.16,889.38"/>
        <lane id=":2347375263_0_1" index="1" disallow="tram rail_urban rail rail_electric rail_fast ship" speed="22.22" length="25.43" shape="198.03,900.35 192.78,896.61 188.50,893.36 183.60,890.13 176.50,886.47"/>
    </edge>
    <edge id=":2347375263_2" function="internal">
        <lane id=":2347375263_2_0" index="0" disallow="tram rail_urban rail rail_electric rail_fast ship" speed="22.22" length="25.93" shape="199.70,897.37 192.99,893.68 188.78,890.46 184.56,887.24 177.85,883.57"/>
        <lane id=":2347375263_2_1" index="1" disallow="tram rail_urban rail rail_electric rail_fast ship" speed="22.22" length="25.93" shape="201.05,894.47 194.34,890.77 190.13,887.55 185.91,884.34 179.19,880.66"/>
        <lane id=":2347375263_2_2" index="2" disallow="tram rail_urban rail rail_electric rail_fast ship" speed="22.22" length="25.93" shape="202.40,891.57 195.69,887.87 191.47,884.65 187.25,881.44 180.53,877.76"/>
    </edge>
    <edge id=":2347375265_0" function="internal">
        <lane id=":2347375265_0_0" index="0" disallow="tram rail_urban rail rail_electric rail_fast ship" speed="22.22" length="0.10" shape="509.00,1018.75 509.00,1018.75"/>
        <lane id=":2347375265_0_1" index="1" disallow="tram rail_urban rail rail_electric rail_fast ship" speed="22.22" length="0.10" shape="507.65,1021.65 507.65,1021.65"/>
        <lane id=":2347375265_0_2" index="2" disallow="tram rail_urban rail rail_electric rail_fast ship" speed="22.22" length="0.10" shape="506.30,1024.55 506.30,1024.55"/>
    </edge>
    <edge id=":2347375273_0" function="internal">
        <lane id=":2347375273_0_0" index="0" disallow="tram rail_urban rail rail_electric rail_fast ship" speed="22.22" length="17.55" shape="588.21,1087.75 572.36,1080.20"/>
        <lane id=":2347375273_0_1" index="1" disallow="tram rail_urban rail rail_electric rail_fast ship" speed="22.22" length="17.55" shape="589.58,1084.86 573.74,1077.31"/>
    </edge>
    <edge id=":2347375273_2" function="internal">
        <lane id=":2347375273_2_0" index="0" disallow="tram rail_urban rail rail_electric rail_fast ship" speed="18.96" length="19.84" shape="589.58,1084.86 584.18,1082.47 580.44,1080.65 577.37,1078.06 574.00,1073.39"/>
        <lane id=":2347375273_2_1" index="1" disallow="tram rail_urban rail rail_electric rail_fast ship" speed="18.75" length="19.43" shape="589.58,1084.86 584.61,1082.15 581.66,1079.54 579.38,1076.18 576.41,1071.23"/>
    </edge>
    <edge id=":2347375279_0" function="internal">
        <lane id=":2347375279_0_0" index="0" disallow="tram rail_urban rail rail_electric rail_fast ship" speed="22.22" length="14.76" shape="609.53,1056.04 622.90,1062.37"/>
        <lane id=":2347375279_0_1" index="1" disallow="tram rail_urban rail rail_electric rail_fast ship" speed="22.22" length="14.76" shape="608.16,1058.93 621.47,1065.23"/>
    </edge>
    <edge id=":2347375279_2" function="internal">
        <lane id=":2347375279_2_0" index="0" disallow="tram rail_urban rail rail_electric rail_fast ship" speed="13.33" length="14.72" shape="607.22,1064.80 610.59,1063.87 613.76,1063.33 617.23,1063.64 621.47,1065.23"/>
    </edge>
    <edge id=":2347375281_0" function="internal">
        <lane id=":2347375281_0_0" index="0" disallow="tram rail_urban rail rail_electric rail_fast ship" speed="22.22" length="26.12" shape="650.95,1071.89 654.62,1075.01 659.55,1079.17 665.47,1083.46 672.13,1086.98"/>
    </edge>
    <edge id=":2347375281_1" function="internal">
        <lane id=":2347375281_1_0" index="0" disallow="tram rail_urban rail rail_electric rail_fast ship" speed="22.22" length="26.21" shape="648.82,1075.27 672.13,1086.98"/>
        <lane id=":2347375281_1_1" index="1" disallow="tram rail_urban rail rail_electric rail_fast ship" speed="22.22" length="26.21" shape="647.40,1078.13 670.92,1089.95"/>
    </edge>
    <edge id=":2347375299_0" function="internal">
        <lane id=":2347375299_0_0" index="0" disallow="tram rail_urban rail rail_electric rail_fast ship" speed="22.22" length="31.88" shape="502.35,999.93 505.91,1003.32 511.90,1007.31 519.89,1011.73 529.43,1016.45"/>
    </edge>
    <edge id=":2347375299_1" function="internal">
        <lane id=":2347375299_1_0" index="0" disallow="tram rail_urban rail rail_electric rail_fast ship" speed="22.22" length="32.63" shape="499.28,1003.98 528.06,1019.34"/>
        <lane id=":2347375299_1_1" index="1" disallow="tram rail_urban rail rail_electric rail_fast ship" speed="22.22" length="32.63" shape="497.91,1006.88 526.69,1022.23"/>
    </edge>
    <edge id=":2347375299_3" function="internal">
        <lane id=":2347375299_3_0" index="0" disallow="tram rail_urban rail rail_electric rail_fast ship" speed="14.29" length="32.31" shape="497.91,1006.88 508.42,1012.39 515.90,1017.57 520.34,1022.43 521.77,1026.97"/>
    </edge>
    <edge id=":2347375308_0" function="internal">
        <lane id=":2347375308_0_0" index="0" disallow="tram rail_urban rail rail_electric rail_fast ship" speed="22.22" length="8.40" shape="545.24,989.90 544.91,987.44 544.56,985.76 543.99,984.15 542.99,981.87"/>
    </edge>
    <edge id=":2347375308_1" function="internal">
        <lane id=":2347375308_1_0" index="0" disallow="tram rail_urban rail rail_electric rail_fast ship" speed="22.22" length="9.22" shape="545.24,989.90 545.42,987.27 546.31,985.52 547.21,983.76 547.39,981.13"/>
        <lane id=":2347375308_1_1" index="1" disallow="tram rail_urban rail rail_electric rail_fast ship" speed="22.22" length="9.22" shape="548.41,989.51 548.59,986.88 549.49,985.12 550.38,983.37 550.56,980.74"/>
    </edge>
    <edge id=":2347375308_3" function="internal">
        <lane id=":2347375308_3_0" index="0" disallow="tram rail_urban rail rail_electric rail_fast ship" speed="3.65" length="1.44" shape="551.59,989.12 552.23,987.83"/>
    </edge>
    <edge id=":2347375308_8" function="internal">
        <lane id=":2347375308_8_0" index="0" disallow="tram rail_urban rail rail_electric rail_fast ship" speed="3.65" length="3.23" shape="552.23,987.83 552.98,987.33 553.82,987.63 554.76,988.73"/>
    </edge>
    <edge id=":2347375308_4" function="internal">
        <lane id=":2347375308_4_0" index="0" disallow="tram rail_urban rail rail_electric rail_fast ship" speed="22.22" length="9.01" shape="560.09,979.56 560.90,982.07 562.19,983.55 563.48,985.04 564.29,987.55"/>
        <lane id=":2347375308_4_1" index="1" disallow="tram rail_urban rail rail_electric rail_fast ship" speed="22.22" length="9.01" shape="556.92,979.95 557.73,982.46 559.01,983.95 560.30,985.43 561.11,987.94"/>
        <lane id=":2347375308_4_2" index="2" disallow="tram rail_urban rail rail_electric rail_fast ship" speed="22.22" length="9.01" shape="553.74,980.35 554.55,982.85 555.84,984.34 557.13,985.83 557.94,988.33"/>
        <lane id=":2347375308_4_3" index="3" disallow="tram rail_urban rail rail_electric rail_fast ship" speed="22.22" length="9.01" shape="553.74,980.35 554.76,988.73"/>
    </edge>
    <edge id=":2826088521_0" function="internal">
        <lane id=":2826088521_0_0" index="0" disallow="tram rail_urban rail rail_electric rail_fast ship" speed="3.65" length="4.67" shape="499.31,0.03 500.09,-1.18 500.88,-1.60 501.69,-1.22 502.51,-0.03"/>
    </edge>
    <edge id=":364890285_0" function="internal">
        <lane id=":364890285_0_0" index="0" disallow="tram rail_urban rail rail_electric rail_fast ship" speed="22.22" length="7.55" shape="703.09,1141.73 700.84,1141.26 699.21,1141.25 697.62,1141.17 695.46,1140.45"/>
        <lane id=":364890285_0_1" index="1" disallow="tram rail_urban rail rail_electric rail_fast ship" speed="22.22" length="7.55" shape="703.09,1141.73 701.08,1140.81 699.89,1139.80 698.73,1138.70 696.81,1137.54"/>
        <lane id=":364890285_0_2" index="2" disallow="tram rail_urban rail rail_electric rail_fast ship" speed="22.22" length="7.55" shape="704.08,1138.69 702.18,1137.80 701.06,1136.82 699.98,1135.76 698.16,1134.64"/>
    </edge>
    <edge id=":414693735_0" function="internal">
        <lane id=":414693735_0_0" index="0" disallow="tram rail_urban rail rail_electric rail_fast ship" speed="5.33" length="7.85" shape="572.18,1080.12 570.45,1079.71 569.27,1080.38 568.62,1082.14 568.50,1084.98"/>
        <lane id=":414693735_0_1" index="1" disallow="tram rail_urban rail rail_electric rail_fast ship" speed="7.17" length="15.36" shape="573.56,1077.23 569.74,1076.16 567.09,1077.17 565.62,1080.25 565.32,1085.40"/>
    </edge>
    <edge id=":414693735_2" function="internal">
        <lane id=":414693735_2_0" index="0" disallow="tram rail_urban rail rail_electric rail_fast ship" speed="22.22" length="16.19" shape="573.56,1077.23 569.04,1075.62 565.70,1075.26 562.33,1074.96 557.73,1073.55"/>
        <lane id=":414693735_2_1" index="1" disallow="tram rail_urban rail rail_electric rail_fast ship" speed="22.22" length="16.19" shape="573.56,1077.23 558.96,1070.60"/>
    </edge>
    <edge id=":414693735_4" function="internal">
        <lane id=":414693735_4_0" index="0" disallow="tram rail_urban rail rail_electric rail_fast ship" speed="22.22" length="20.51" shape="567.22,1064.87 568.50,1084.98"/>
        <lane id=":414693735_4_1" index="1" disallow="tram rail_urban rail rail_electric rail_fast ship" speed="22.22" length="20.51" shape="564.02,1064.93 565.32,1085.40"/>
        <lane id=":414693735_4_2" index="2" disallow="tram rail_urban rail rail_electric rail_fast ship" speed="22.22" length="20.51" shape="560.82,1064.98 562.14,1085.82"/>
    </edge>
    <edge id=":414693735_7" function="internal">
        <lane id=":414693735_7_0" index="0" disallow="tram rail_urban rail rail_electric rail_fast ship" speed="5.06" length="6.64" shape="560.82,1064.98 560.75,1067.75 560.41,1069.61 559.82,1070.56 558.96,1070.60"/>
    </edge>
    <edge id=":4641608345_0" function="internal">
        <lane id=":4641608345_0_0" index="0" disallow="tram rail_urban rail rail_electric rail_fast ship" speed="22.22" length="7.40" shape="618.41,1104.65 616.40,1103.81 614.95,1103.42 613.45,1103.18 611.28,1102.79"/>
    </edge>
    <edge id=":4641608345_1" function="internal">
        <lane id=":4641608345_1_0" index="0" disallow="tram rail_urban rail rail_electric rail_fast ship" speed="22.22" length="7.64" shape="619.76,1101.75 617.63,1100.95 616.09,1100.63 614.55,1100.29 612.45,1099.42"/>
        <lane id=":4641608345_1_1" index="1" disallow="tram rail_urban rail rail_electric rail_fast ship" speed="22.22" length="7.64" shape="621.11,1098.85 619.01,1098.06 617.48,1097.75 615.96,1097.42 613.89,1096.57"/>
    </edge>
    <edge id=":4641608352_0" function="internal">
        <lane id=":4641608352_0_0" index="0" disallow="tram rail_urban rail rail_electric rail_fast ship" speed="11.60" length="8.37" shape="574.02,1120.77 573.08,1122.42 572.46,1123.61 572.14,1124.86 572.10,1126.72"/>
        <lane id=":4641608352_0_1" index="1" disallow="tram rail_urban rail rail_electric rail_fast ship" speed="13.20" length="8.37" shape="574.02,1120.77 572.41,1122.64 570.70,1123.63 569.37,1124.71 568.90,1126.84"/>
        <lane id=":4641608352_0_2" index="2" disallow="tram rail_urban rail rail_electric rail_fast ship" speed="14.69" length="8.37" shape="574.02,1120.77 565.71,1126.97"/>
    </edge>
    <edge id=":4641608352_3" function="internal">
        <lane id=":4641608352_3_0" index="0" disallow="tram rail_urban rail rail_electric rail_fast ship" speed="22.22" length="6.86" shape="570.12,1120.12 569.98,1122.13 569.52,1123.48 569.06,1124.83 568.90,1126.84"/>
        <lane id=":4641608352_3_1" index="1" disallow="tram rail_urban rail rail_electric rail_fast ship" speed="22.22" length="6.86" shape="566.93,1120.27 566.78,1122.27 566.33,1123.62 565.86,1124.97 565.71,1126.97"/>
        <lane id=":4641608352_3_2" index="2" disallow="tram rail_urban rail rail_electric rail_fast ship" speed="22.22" length="6.86" shape="563.73,1120.42 563.59,1122.41 563.13,1123.76 562.67,1125.10 562.51,1127.09"/>
    </edge>
    <edge id=":4641608353_0" function="internal">
        <lane id=":4641608353_0_0" index="0" disallow="tram rail_urban rail rail_electric rail_fast ship" speed="18.14" length="6.60" shape="548.57,1141.75 548.40,1139.83 548.03,1138.54 547.43,1137.31 546.59,1135.54"/>
    </edge>
    <edge id=":4641608353_1" function="internal">
        <lane id=":4641608353_1_0" index="0" disallow="tram rail_urban rail rail_electric rail_fast ship" speed="22.22" length="7.20" shape="551.77,1141.64 551.49,1139.56 550.99,1138.17 550.49,1136.79 550.19,1134.70"/>
        <lane id=":4641608353_1_1" index="1" disallow="tram rail_urban rail rail_electric rail_fast ship" speed="22.22" length="7.20" shape="554.97,1141.53 554.69,1139.43 554.19,1138.04 553.68,1136.65 553.39,1134.56"/>
        <lane id=":4641608353_1_2" index="2" disallow="tram rail_urban rail rail_electric rail_fast ship" speed="22.22" length="7.20" shape="558.17,1141.41 557.89,1139.31 557.39,1137.91 556.88,1136.52 556.58,1134.42"/>
        <lane id=":4641608353_1_3" index="3" disallow="tram rail_urban rail rail_electric rail_fast ship" speed="22.22" length="7.20" shape="561.36,1141.30 561.09,1139.19 560.59,1137.79 560.08,1136.38 559.78,1134.27"/>