<?xml version="1.0" encoding="UTF-8"?>

<!-- generated on 2023-12-29 11:22:53 by Eclipse SUMO duarouter Version 1.18.0
<configuration xmlns:xsi="http://www.w3.org/2001/XMLSchema-instance" xsi:noNamespaceSchemaLocation="http://sumo.dlr.de/xsd/duarouterConfiguration.xsd">

    <input>
        <net-file value=".\singal.net.xml"/>
        <route-files value=".\vClass.add.xml,.\odfile.odtrips.xml"/>
    </input>

    <output>
        <output-file value=".\route.rou.xml"/>
    </output>

</configuration>
-->

<routes xmlns:xsi="http://www.w3.org/2001/XMLSchema-instance" xsi:noNamespaceSchemaLocation="http://sumo.dlr.de/xsd/routes_file.xsd">
    <vType id="pc" length="5.00" maxSpeed="55.55" vClass="passenger" laneChangeModel="LC2013" lcStrategic="0" lcCooperative="1" lcSpeedGain="10" lcKeepRight="0" lcAssertive="1" lcOvertakeRight="0.9999" accel="2.6" decel="4.5" sigma="0.3"/>
    <vehicle id="pc63" type="pc" depart="0.79" departLane="free" departSpeed="max" fromTaz="10" toTaz="11">
        <route edges="42064236 170605264 170605269 206489382 43947390 42064235 277653336 206489380 43947382 1120029187 43947368 206489381"/>
    </vehicle>
    <vehicle id="pc3189" type="pc" depart="1.88" departLane="free" departSpeed="max" fromTaz="30" toTaz="31">
        <route edges="277654571 170601193 43947396 1125632598 43947365"/>
    </vehicle>
    <vehicle id="pc283" type="pc" depart="2.83" departLane="free" departSpeed="max" fromTaz="10" toTaz="11">
        <route edges="42064236 170605264 170605269 206489382 43947390 42064235 277653336 206489380 43947382 1120029187 43947368 206489381"/>
    </vehicle>
    <vehicle id="pc3024" type="pc" depart="4.33" departLane="free" departSpeed="max" fromTaz="30" toTaz="31">
        <route edges="277654571 170601193 43947396 1125632598 43947365"/>
    </vehicle>
    <vehicle id="pc519" type="pc" depart="4.77" departLane="free" departSpeed="max" fromTaz="10" toTaz="11">
        <route edges="42064236 170605264 170605269 206489382 43947390 42064235 277653336 206489380 43947382 1120029187 43947368 206489381"/>
    </vehicle>
    <vehicle id="pc3882" type="pc" depart="4.80" departLane="free" departSpeed="max" fromTaz="30" toTaz="31">
        <route edges="277654571 170601193 43947396 1125632598 43947365"/>
    </vehicle>
    <vehicle id="pc4525" type="pc" depart="6.04" departLane="free" departSpeed="max" fromTaz="40" toTaz="41">
        <route edges="43948501 660731151 43947385 43947369#0 43947369#1 170601197"/>
    </vehicle>
    <vehicle id="pc3060" type="pc" depart="7.36" departLane="free" departSpeed="max" fromTaz="30" toTaz="31">
        <route edges="277654571 170601193 43947396 1125632598 43947365"/>
    </vehicle>
    <vehicle id="pc4136" type="pc" depart="8.70" departLane="free" departSpeed="max" fromTaz="40" toTaz="21">
        <route edges="43948501 1118511056 1120029196 1139168722 206489379 170605266 170605263"/>
    </vehicle>
    <vehicle id="pc2254" type="pc" depart="10.87" departLane="free" departSpeed="max" fromTaz="20" toTaz="21">
        <route edges="70707218 43947387 1120029197 42064105 E4 42064224 206489379 170605266 170605263"/>
    </vehicle>
    <vehicle id="pc3016" type="pc" depart="11.00" departLane="free" departSpeed="max" fromTaz="30" toTaz="31">
        <route edges="277654571 170601193 43947396 1125632598 43947365"/>
    </vehicle>
    <vehicle id="pc245" type="pc" depart="11.12" departLane="free" departSpeed="max" fromTaz="10" toTaz="11">
        <route edges="42064236 170605264 170605269 206489382 43947390 42064235 277653336 206489380 43947382 1120029187 43947368 206489381"/>
    </vehicle>
    <vehicle id="pc2650" type="pc" depart="11.33" departLane="free" departSpeed="max" fromTaz="30" toTaz="11">
        <route edges="277654571 E7 E8 41844004 1120029190 1120029189 E2 E3 43947368 206489381"/>
    </vehicle>
    <vehicle id="pc2377" type="pc" depart="11.57" departLane="free" departSpeed="max" fromTaz="20" toTaz="21">
        <route edges="70707218 43947387 1120029197 42064105 E4 42064224 206489379 170605266 170605263"/>
    </vehicle>
    <vehicle id="pc4235" type="pc" depart="11.71" departLane="free" departSpeed="max" fromTaz="40" toTaz="41">
        <route edges="43948501 660731151 43947385 43947369#0 43947369#1 170601197"/>
    </vehicle>
    <vehicle id="pc4755" type="pc" depart="12.17" departLane="free" departSpeed="max" fromTaz="40" toTaz="41">
        <route edges="43948501 660731151 43947385 43947369#0 43947369#1 170601197"/>
    </vehicle>
    <vehicle id="pc1580" type="pc" depart="14.07" departLane="free" departSpeed="max" fromTaz="20" toTaz="21">
        <route edges="70707218 43947387 1120029197 42064105 E4 42064224 206489379 170605266 170605263"/>
    </vehicle>
    <vehicle id="pc2549" type="pc" depart="15.90" departLane="free" departSpeed="max" fromTaz="20" toTaz="41">
        <route edges="70707218 43947387 1120029197 42064105 E4 E6 1120029184 1120029183 43947369#1 170601197"/>
    </vehicle>
    <vehicle id="pc1351" type="pc" depart="16.08" departLane="free" departSpeed="max" fromTaz="10" toTaz="31">
        <route edges="42064236 170605264 170605269 206489382 43947390 42064232 1120029185 1120029186 E9 43947365"/>
    </vehicle>
    <vehicle id="pc3872" type="pc" depart="16.08" departLane="free" departSpeed="max" fromTaz="30" toTaz="31">
        <route edges="277654571 170601193 43947396 1125632598 43947365"/>
    </vehicle>
    <vehicle id="pc88" type="pc" depart="16.72" departLane="free" departSpeed="max" fromTaz="10" toTaz="11">
        <route edges="42064236 170605264 170605269 206489382 43947390 42064235 277653336 206489380 43947382 1120029187 43947368 206489381"/>
    </vehicle>
    <vehicle id="pc4611" type="pc" depart="18.30" departLane="free" departSpeed="max" fromTaz="40" toTaz="41">
        <route edges="43948501 660731151 43947385 43947369#0 43947369#1 170601197"/>
    </vehicle>
    <vehicle id="pc9" type="pc" depart="18.39" departLane="free" departSpeed="max" fromTaz="10" toTaz="11">
        <route edges="42064236 170605264 170605269 206489382 43947390 42064235 277653336 206489380 43947382 1120029187 43947368 206489381"/>
    </vehicle>
    <vehicle id="pc4635" type="pc" depart="18.64" departLane="free" departSpeed="max" fromTaz="40" toTaz="41">
        <route edges="43948501 660731151 43947385 43947369#0 43947369#1 170601197"/>
    </vehicle>
    <vehicle id="pc3459" type="pc" depart="18.86" departLane="free" departSpeed="max" fromTaz="30" toTaz="31">
        <route edges="277654571 170601193 43947396 1125632598 43947365"/>
    </vehicle>
    <vehicle id="pc4540" type="pc" depart="18.94" departLane="free" departSpeed="max" fromTaz="40" toTaz="41">
        <route edges="43948501 660731151 43947385 43947369#0 43947369#1 170601197"/>
    </vehicle>
    <vehicle id="pc749" type="pc" depart="18.97" departLane="free" departSpeed="max" fromTaz="10" toTaz="11">
        <route edges="42064236 170605264 170605269 206489382 43947390 42064235 277653336 206489380 43947382 1120029187 43947368 206489381"/>
    </vehicle>
    <vehicle id="pc412" type="pc" depart="19.61" departLane="free" departSpeed="max" fromTaz="10" toTaz="11">
        <route edges="42064236 170605264 170605269 206489382 43947390 42064235 277653336 206489380 43947382 1120029187 43947368 206489381"/>
    </vehicle>
    <vehicle id="pc4907" type="pc" depart="19.62" departLane="free" departSpeed="max" fromTaz="40" toTaz="41">
        <route edges="43948501 660731151 43947385 43947369#0 43947369#1 170601197"/>
    </vehicle>
    <vehicle id="pc2523" type="pc" depart="19.73" departLane="free" departSpeed="max" fromTaz="20" toTaz="41">
        <route edges="70707218 43947387 1120029197 42064105 E4 E6 1120029184 1120029183 43947369#1 170601197"/>
    </vehicle>
    <vehicle id="pc4633" type="pc" depart="21.21" departLane="free" departSpeed="max" fromTaz="40" toTaz="41">
        <route edges="43948501 660731151 43947385 43947369#0 43947369#1 170601197"/>
    </vehicle>
    <vehicle id="pc1598" type="pc" depart="21.76" departLane="free" departSpeed="max" fromTaz="20" toTaz="21">
        <route edges="70707218 43947387 1120029197 42064105 E4 42064224 206489379 170605266 170605263"/>
    </vehicle>
    <vehicle id="pc4647" type="pc" depart="22.42" departLane="free" departSpeed="max" fromTaz="40" toTaz="41">
        <route edges="43948501 660731151 43947385 43947369#0 43947369#1 170601197"/>
    </vehicle>
    <vehicle id="pc3041" type="pc" depart="22.69" departLane="free" departSpeed="max" fromTaz="30" toTaz="31">
        <route edges="277654571 170601193 43947396 1125632598 43947365"/>
    </vehicle>
    <vehicle id="pc1396" type="pc" depart="22.82" departLane="free" departSpeed="max" fromTaz="20" toTaz="21">
        <route edges="70707218 43947387 1120029197 42064105 E4 42064224 206489379 170605266 170605263"/>
    </vehicle>
    <vehicle id="pc391" type="pc" depart="23.05" departLane="free" departSpeed="max" fromTaz="10" toTaz="11">
        <route edges="42064236 170605264 170605269 206489382 43947390 42064235 277653336 206489380 43947382 1120029187 43947368 206489381"/>
    </vehicle>
    <vehicle id="pc4284" type="pc" depart="23.87" departLane="free" departSpeed="max" fromTaz="40" toTaz="41">
        <route edges="43948501 660731151 43947385 43947369#0 43947369#1 170601197"/>
    </vehicle>
    <vehicle id="pc1144" type="pc" depart="23.89" departLane="free" departSpeed="max" fromTaz="10" toTaz="11">
        <route edges="42064236 170605264 170605269 206489382 43947390 42064235 277653336 206489380 43947382 1120029187 43947368 206489381"/>
    </vehicle>
    <vehicle id="pc1427" type="pc" depart="24.44" departLane="free" departSpeed="max" fromTaz="20" toTaz="21">
        <route edges="70707218 43947387 1120029197 42064105 E4 42064224 206489379 170605266 170605263"/>
    </vehicle>
    <vehicle id="pc3300" type="pc" depart="25.12" departLane="free" departSpeed="max" fromTaz="30" toTaz="31">
        <route edges="277654571 170601193 43947396 1125632598 43947365"/>
    </vehicle>
    <vehicle id="pc3797" type="pc" depart="25.71" departLane="free" departSpeed="max" fromTaz="30" toTaz="31">
        <route edges="277654571 170601193 43947396 1125632598 43947365"/>
    </vehicle>
    <vehicle id="pc3632" type="pc" depart="25.74" departLane="free" departSpeed="max" fromTaz="30" toTaz="31">
        <route edges="277654571 170601193 43947396 1125632598 43947365"/>
    </vehicle>
    <vehicle id="pc1774" type="pc" depart="25.86" departLane="free" departSpeed="max" fromTaz="20" toTaz="21">
        <route edges="70707218 43947387 1120029197 42064105 E4 42064224 206489379 170605266 170605263"/>
    </vehicle>
    <vehicle id="pc5348" type="pc" depart="26.95" departLane="free" departSpeed="max" fromTaz="40" toTaz="41">
        <route edges="43948501 660731151 43947385 43947369#0 43947369#1 170601197"/>
    </vehicle>
    <vehicle id="pc3432" type="pc" depart="27.26" departLane="free" departSpeed="max" fromTaz="30" toTaz="31">
        <route edges="277654571 170601193 43947396 1125632598 43947365"/>
    </vehicle>
    <vehicle id="pc3968" type="pc" depart="28.73" departLane="free" departSpeed="max" fromTaz="40" toTaz="11">
        <route edges="43948501 1118511056 1122897133 1120029195 1120029194 1120029193 1120029192 1120029190 1120029189 E2 E3 43947368 206489381"/>
    </vehicle>
    <vehicle id="pc5411" type="pc" depart="29.39" departLane="free" departSpeed="max" fromTaz="40" toTaz="41">
        <route edges="43948501 660731151 43947385 43947369#0 43947369#1 170601197"/>
    </vehicle>
    <vehicle id="pc3553" type="pc" depart="29.89" departLane="free" departSpeed="max" fromTaz="30" toTaz="31">
        <route edges="277654571 170601193 43947396 1125632598 43947365"/>
    </vehicle>
    <vehicle id="pc1386" type="pc" depart="32.14" departLane="free" departSpeed="max" fromTaz="10" toTaz="41">
        <route edges="42064236 170605264 170605269 1120029182 1120029183 43947369#1 170601197"/>
    </vehicle>
    <vehicle id="pc1751" type="pc" depart="35.00" departLane="free" departSpeed="max" fromTaz="20" toTaz="21">
        <route edges="70707218 43947387 1120029197 42064105 E4 42064224 206489379 170605266 170605263"/>
    </vehicle>
    <vehicle id="pc4849" type="pc" depart="35.81" departLane="free" departSpeed="max" fromTaz="40" toTaz="41">
        <route edges="43948501 660731151 43947385 43947369#0 43947369#1 170601197"/>
    </vehicle>
    <vehicle id="pc3670" type="pc" depart="35.90" departLane="free" departSpeed="max" fromTaz="30" toTaz="31">
        <route edges="277654571 170601193 43947396 1125632598 43947365"/>
    </vehicle>
    <vehicle id="pc3007" type="pc" depart="36.22" departLane="free" departSpeed="max" fromTaz="30" toTaz="31">
        <route edges="277654571 170601193 43947396 1125632598 43947365"/>
    </vehicle>
    <vehicle id="pc1289" type="pc" depart="36.35" departLane="free" departSpeed="max" fromTaz="10" toTaz="31">
        <route edges="42064236 170605264 170605269 206489382 43947390 42064232 1120029185 1120029186 E9 43947365"/>
    </vehicle>
    <vehicle id="pc198" type="pc" depart="36.86" departLane="free" departSpeed="max" fromTaz="10" toTaz="11">
        <route edges="42064236 170605264 170605269 206489382 43947390 42064235 277653336 206489380 43947382 1120029187 43947368 206489381"/>
    </vehicle>
    <vehicle id="pc2368" type="pc" depart="37.22" departLane="free" departSpeed="max" fromTaz="20" toTaz="21">
        <route edges="70707218 43947387 1120029197 42064105 E4 42064224 206489379 170605266 170605263"/>
    </vehicle>
    <vehicle id="pc2975" type="pc" depart="37.59" departLane="free" departSpeed="max" fromTaz="30" toTaz="31">
        <route edges="277654571 170601193 43947396 1125632598 43947365"/>
    </vehicle>
    <vehicle id="pc526" type="pc" depart="37.70" departLane="free" departSpeed="max" fromTaz="10" toTaz="11">
        <route edges="42064236 170605264 170605269 206489382 43947390 42064235 277653336 206489380 43947382 1120029187 43947368 206489381"/>
    </vehicle>
    <vehicle id="pc5153" type="pc" depart="37.86" departLane="free" departSpeed="max" fromTaz="40" toTaz="41">
        <route edges="43948501 660731151 43947385 43947369#0 43947369#1 170601197"/>
    </vehicle>
    <vehicle id="pc4338" type="pc" depart="38.76" departLane="free" departSpeed="max" fromTaz="40" toTaz="41">
        <route edges="43948501 660731151 43947385 43947369#0 43947369#1 170601197"/>
    </vehicle>
    <vehicle id="pc142" type="pc" depart="39.03" departLane="free" departSpeed="max" fromTaz="10" toTaz="11">
        <route edges="42064236 170605264 170605269 206489382 43947390 42064235 277653336 206489380 43947382 1120029187 43947368 206489381"/>
    </vehicle>
    <vehicle id="pc4423" type="pc" depart="42.17" departLane="free" departSpeed="max" fromTaz="40" toTaz="41">
        <route edges="43948501 660731151 43947385 43947369#0 43947369#1 170601197"/>
    </vehicle>
    <vehicle id="pc3368" type="pc" depart="42.24" departLane="free" departSpeed="max" fromTaz="30" toTaz="31">
        <route edges="277654571 170601193 43947396 1125632598 43947365"/>
    </vehicle>
    <vehicle id="pc3622" type="pc" depart="42.31" departLane="free" departSpeed="max" fromTaz="30" toTaz="31">
        <route edges="277654571 170601193 43947396 1125632598 43947365"/>
    </vehicle>
    <vehicle id="pc3574" type="pc" depart="42.40" departLane="free" departSpeed="max" fromTaz="30" toTaz="31">
        <route edges="277654571 170601193 43947396 1125632598 43947365"/>
    </vehicle>
    <vehicle id="pc3680" type="pc" depart="42.53" departLane="free" departSpeed="max" fromTaz="30" toTaz="31">
        <route edges="277654571 170601193 43947396 1125632598 43947365"/>
    </vehicle>
    <vehicle id="pc4727" type="pc" depart="43.31" departLane="free" departSpeed="max" fromTaz="40" toTaz="41">
        <route edges="43948501 660731151 43947385 43947369#0 43947369#1 170601197"/>
    </vehicle>
    <vehicle id="pc1415" type="pc" depart="44.99" departLane="free" departSpeed="max" fromTaz="20" toTaz="21">
        <route edges="70707218 43947387 1120029197 42064105 E4 42064224 206489379 170605266 170605263"/>
    </vehicle>
    <vehicle id="pc2766" type="pc" depart="45.59" departLane="free" departSpeed="max" fromTaz="30" toTaz="31">
        <route edges="277654571 170601193 43947396 1125632598 43947365"/>
    </vehicle>
    <vehicle id="pc4699" type="pc" depart="46.74" departLane="free" departSpeed="max" fromTaz="40" toTaz="41">
        <route edges="43948501 660731151 43947385 43947369#0 43947369#1 170601197"/>
    </vehicle>
    <vehicle id="pc3764" type="pc" depart="46.80" departLane="free" departSpeed="max" fromTaz="30" toTaz="31">
        <route edges="277654571 170601193 43947396 1125632598 43947365"/>
    </vehicle>
    <vehicle id="pc2854" type="pc" depart="46.85" departLane="free" departSpeed="max" fromTaz="30" toTaz="31">
        <route edges="277654571 170601193 43947396 1125632598 43947365"/>
    </vehicle>
    <vehicle id="pc571" type="pc" depart="46.90" departLane="free" departSpeed="max" fromTaz="10" toTaz="11">
        <route edges="42064236 170605264 170605269 206489382 43947390 42064235 277653336 206489380 43947382 1120029187 43947368 206489381"/>
    </vehicle>
    <vehicle id="pc3654" type="pc" depart="47.47" departLane="free" departSpeed="max" fromTaz="30" toTaz="31">
        <route edges="277654571 170601193 43947396 1125632598 43947365"/>
    </vehicle>
    <vehicle id="pc772" type="pc" depart="47.95" departLane="free" departSpeed="max" fromTaz="10" toTaz="11">
        <route edges="42064236 170605264 170605269 206489382 43947390 42064235 277653336 206489380 43947382 1120029187 43947368 206489381"/>
    </vehicle>
    <vehicle id="pc1244" type="pc" depart="49.05" departLane="free" departSpeed="max" fromTaz="10" toTaz="11">
        <route edges="42064236 170605264 170605269 206489382 43947390 42064235 277653336 206489380 43947382 1120029187 43947368 206489381"/>
    </vehicle>
    <vehicle id="pc2386" type="pc" depart="49.06" departLane="free" departSpeed="max" fromTaz="20" toTaz="21">
        <route edges="70707218 43947387 1120029197 42064105 E4 42064224 206489379 170605266 170605263"/>
    </vehicle>
    <vehicle id="pc4895" type="pc" depart="49.06" departLane="free" departSpeed="max" fromTaz="40" toTaz="41">
        <route edges="43948501 660731151 43947385 43947369#0 43947369#1 170601197"/>
    </vehicle>
    <vehicle id="pc2342" type="pc" depart="49.22" departLane="free" departSpeed="max" fromTaz="20" toTaz="21">
        <route edges="70707218 43947387 1120029197 42064105 E4 42064224 206489379 170605266 170605263"/>
    </vehicle>
    <vehicle id="pc4430" type="pc" depart="49.85" departLane="free" departSpeed="max" fromTaz="40" toTaz="41">
        <route edges="43948501 660731151 43947385 43947369#0 43947369#1 170601197"/>
    </vehicle>
    <vehicle id="pc2858" type="pc" depart="49.86" departLane="free" departSpeed="max" fromTaz="30" toTaz="31">
        <route edges="277654571 170601193 43947396 1125632598 43947365"/>
    </vehicle>
    <vehicle id="pc4953" type="pc" depart="50.43" departLane="free" departSpeed="max" fromTaz="40" toTaz="41">
        <route edges="43948501 660731151 43947385 43947369#0 43947369#1 170601197"/>
    </vehicle>
    <vehicle id="pc4031" type="pc" depart="50.70" departLane="free" departSpeed="max" fromTaz="40" toTaz="11">
        <route edges="43948501 1118511056 1122897133 1120029195 1120029194 1120029193 1120029192 1120029190 1120029189 E2 E3 43947368 206489381"/>
    </vehicle>
    <vehicle id="pc1445" type="pc" depart="51.33" departLane="free" departSpeed="max" fromTaz="20" toTaz="21">
        <route edges="70707218 43947387 1120029197 42064105 E4 42064224 206489379 170605266 170605263"/>
    </vehicle>
    <vehicle id="pc3148" type="pc" depart="52.62" departLane="free" departSpeed="max" fromTaz="30" toTaz="31">
        <route edges="277654571 170601193 43947396 1125632598 43947365"/>
    </vehicle>
    <vehicle id="pc3566" type="pc" depart="53.26" departLane="free" departSpeed="max" fromTaz="30" toTaz="31">
        <route edges="277654571 170601193 43947396 1125632598 43947365"/>
    </vehicle>
    <vehicle id="pc3448" type="pc" depart="53.56" departLane="free" departSpeed="max" fromTaz="30" toTaz="31">
        <route edges="277654571 170601193 43947396 1125632598 43947365"/>
    </vehicle>
    <vehicle id="pc1676" type="pc" depart="53.94" departLane="free" departSpeed="max" fromTaz="20" toTaz="21">
        <route edges="70707218 43947387 1120029197 42064105 E4 42064224 206489379 170605266 170605263"/>
    </vehicle>
    <vehicle id="pc4904" type="pc" depart="54.11" departLane="free" departSpeed="max" fromTaz="40" toTaz="41">
        <route edges="43948501 660731151 43947385 43947369#0 43947369#1 170601197"/>
    </vehicle>
    <vehicle id="pc543" type="pc" depart="54.47" departLane="free" departSpeed="max" fromTaz="10" toTaz="11">
        <route edges="42064236 170605264 170605269 206489382 43947390 42064235 277653336 206489380 43947382 1120029187 43947368 206489381"/>
    </vehicle>
    <vehicle id="pc1949" type="pc" depart="55.13" departLane="free" departSpeed="max" fromTaz="20" toTaz="21">
        <route edges="70707218 43947387 1120029197 42064105 E4 42064224 206489379 170605266 170605263"/>
    </vehicle>
    <vehicle id="pc1327" type="pc" depart="55.39" departLane="free" departSpeed="max" fromTaz="10" toTaz="31">
        <route edges="42064236 170605264 170605269 206489382 43947390 42064232 1120029185 1120029186 E9 43947365"/>
    </vehicle>
    <vehicle id="pc4937" type="pc" depart="55.54" departLane="free" departSpeed="max" fromTaz="40" toTaz="41">
        <route edges="43948501 660731151 43947385 43947369#0 43947369#1 170601197"/>
    </vehicle>
    <vehicle id="pc5" type="pc" depart="55.65" departLane="free" departSpeed="max" fromTaz="10" toTaz="11">
        <route edges="42064236 170605264 170605269 206489382 43947390 42064235 277653336 206489380 43947382 1120029187 43947368 206489381"/>
    </vehicle>
    <vehicle id="pc2788" type="pc" depart="55.81" departLane="free" departSpeed="max" fromTaz="30" toTaz="31">
        <route edges="277654571 170601193 43947396 1125632598 43947365"/>
    </vehicle>
    <vehicle id="pc3390" type="pc" depart="56.04" departLane="free" departSpeed="max" fromTaz="30" toTaz="31">
        <route edges="277654571 170601193 43947396 1125632598 43947365"/>
    </vehicle>
    <vehicle id="pc1871" type="pc" depart="56.27" departLane="free" departSpeed="max" fromTaz="20" toTaz="21">
        <route edges="70707218 43947387 1120029197 42064105 E4 42064224 206489379 170605266 170605263"/>
    </vehicle>
    <vehicle id="pc2730" type="pc" depart="58.71" departLane="free" departSpeed="max" fromTaz="30" toTaz="21">
        <route edges="277654571 E7 E8 1120029191 1139168722 206489379 170605266 170605263"/>
    </vehicle>
    <vehicle id="pc3344" type="pc" depart="58.83" departLane="free" departSpeed="max" fromTaz="30" toTaz="31">
        <route edges="277654571 170601193 43947396 1125632598 43947365"/>
    </vehicle>
    <vehicle id="pc3671" type="pc" depart="59.01" departLane="free" departSpeed="max" fromTaz="30" toTaz="31">
        <route edges="277654571 170601193 43947396 1125632598 43947365"/>
    </vehicle>
    <vehicle id="pc1051" type="pc" depart="59.07" departLane="free" departSpeed="max" fromTaz="10" toTaz="11">
        <route edges="42064236 170605264 170605269 206489382 43947390 42064235 277653336 206489380 43947382 1120029187 43947368 206489381"/>
    </vehicle>
    <vehicle id="pc1429" type="pc" depart="59.85" departLane="free" departSpeed="max" fromTaz="20" toTaz="21">
        <route edges="70707218 43947387 1120029197 42064105 E4 42064224 206489379 170605266 170605263"/>
    </vehicle>
    <vehicle id="pc3594" type="pc" depart="60.66" departLane="free" departSpeed="max" fromTaz="30" toTaz="31">
        <route edges="277654571 170601193 43947396 1125632598 43947365"/>
    </vehicle>
    <vehicle id="pc1154" type="pc" depart="63.18" departLane="free" departSpeed="max" fromTaz="10" toTaz="11">
        <route edges="42064236 170605264 170605269 206489382 43947390 42064235 277653336 206489380 43947382 1120029187 43947368 206489381"/>
    </vehicle>
    <vehicle id="pc2183" type="pc" depart="64.13" departLane="free" departSpeed="max" fromTaz="20" toTaz="21">
        <route edges="70707218 43947387 1120029197 42064105 E4 42064224 206489379 170605266 170605263"/>
    </vehicle>
    <vehicle id="pc1870" type="pc" depart="65.23" departLane="free" departSpeed="max" fromTaz="20" toTaz="21">
        <route edges="70707218 43947387 1120029197 42064105 E4 42064224 206489379 170605266 170605263"/>
    </vehicle>
    <vehicle id="pc1556" type="pc" depart="66.73" departLane="free" departSpeed="max" fromTaz="20" toTaz="21">
        <route edges="70707218 43947387 1120029197 42064105 E4 42064224 206489379 170605266 170605263"/>
    </vehicle>
    <vehicle id="pc5053" type="pc" depart="66.83" departLane="free" departSpeed="max" fromTaz="40" toTaz="41">
        <route edges="43948501 660731151 43947385 43947369#0 43947369#1 170601197"/>
    </vehicle>
    <vehicle id="pc2407" type="pc" depart="66.85" departLane="free" departSpeed="max" fromTaz="20" toTaz="31">
        <route edges="70707218 43947387 1120029197 1120029181 1120029186 E9 43947365"/>
    </vehicle>
    <vehicle id="pc3949" type="pc" depart="67.39" departLane="free" departSpeed="max" fromTaz="30" toTaz="31">
        <route edges="277654571 170601193 43947396 1125632598 43947365"/>
    </vehicle>
    <vehicle id="pc5012" type="pc" depart="69.75" departLane="free" departSpeed="max" fromTaz="40" toTaz="41">
        <route edges="43948501 660731151 43947385 43947369#0 43947369#1 170601197"/>
    </vehicle>
    <vehicle id="pc3998" type="pc" depart="70.47" departLane="free" departSpeed="max" fromTaz="40" toTaz="11">
        <route edges="43948501 1118511056 1122897133 1120029195 1120029194 1120029193 1120029192 1120029190 1120029189 E2 E3 43947368 206489381"/>
    </vehicle>
    <vehicle id="pc1828" type="pc" depart="70.69" departLane="free" departSpeed="max" fromTaz="20" toTaz="21">
        <route edges="70707218 43947387 1120029197 42064105 E4 42064224 206489379 170605266 170605263"/>
    </vehicle>
    <vehicle id="pc597" type="pc" depart="70.72" departLane="free" departSpeed="max" fromTaz="10" toTaz="11">
        <route edges="42064236 170605264 170605269 206489382 43947390 42064235 277653336 206489380 43947382 1120029187 43947368 206489381"/>
    </vehicle>
    <vehicle id="pc3673" type="pc" depart="71.75" departLane="free" departSpeed="max" fromTaz="30" toTaz="31">
        <route edges="277654571 170601193 43947396 1125632598 43947365"/>
    </vehicle>
    <vehicle id="pc1076" type="pc" depart="72.86" departLane="free" departSpeed="max" fromTaz="10" toTaz="11">
        <route edges="42064236 170605264 170605269 206489382 43947390 42064235 277653336 206489380 43947382 1120029187 43947368 206489381"/>
    </vehicle>
    <vehicle id="pc4232" type="pc" depart="73.45" departLane="free" departSpeed="max" fromTaz="40" toTaz="41">
        <route edges="43948501 660731151 43947385 43947369#0 43947369#1 170601197"/>
    </vehicle>
    <vehicle id="pc587" type="pc" depart="73.98" departLane="free" departSpeed="max" fromTaz="10" toTaz="11">
        <route edges="42064236 170605264 170605269 206489382 43947390 42064235 277653336 206489380 43947382 1120029187 43947368 206489381"/>
    </vehicle>
    <vehicle id="pc4067" type="pc" depart="74.05" departLane="free" departSpeed="max" fromTaz="40" toTaz="21">
        <route edges="43948501 1118511056 1120029196 1139168722 206489379 170605266 170605263"/>
    </vehicle>
    <vehicle id="pc3026" type="pc" depart="74.14" departLane="free" departSpeed="max" fromTaz="30" toTaz="31">
        <route edges="277654571 170601193 43947396 1125632598 43947365"/>
    </vehicle>
    <vehicle id="pc2544" type="pc" depart="74.54" departLane="free" departSpeed="max" fromTaz="20" toTaz="41">
        <route edges="70707218 43947387 1120029197 42064105 E4 E6 1120029184 1120029183 43947369#1 170601197"/>
    </vehicle>
    <vehicle id="pc4419" type="pc" depart="75.03" departLane="free" departSpeed="max" fromTaz="40" toTaz="41">
        <route edges="43948501 660731151 43947385 43947369#0 43947369#1 170601197"/>
    </vehicle>
    <vehicle id="pc711" type="pc" depart="76.05" departLane="free" departSpeed="max" fromTaz="10" toTaz="11">
        <route edges="42064236 170605264 170605269 206489382 43947390 42064235 277653336 206489380 43947382 1120029187 43947368 206489381"/>
    </vehicle>
    <vehicle id="pc551" type="pc" depart="76.76" departLane="free" departSpeed="max" fromTaz="10" toTaz="11">
        <route edges="42064236 170605264 170605269 206489382 43947390 42064235 277653336 206489380 43947382 1120029187 43947368 206489381"/>
    </vehicle>
    <vehicle id="pc2369" type="pc" depart="77.29" departLane="free" departSpeed="max" fromTaz="20" toTaz="21">
        <route edges="70707218 43947387 1120029197 42064105 E4 42064224 206489379 170605266 170605263"/>
    </vehicle>
    <vehicle id="pc4126" type="pc" depart="77.78" departLane="free" departSpeed="max" fromTaz="40" toTaz="21">
        <route edges="43948501 1118511056 1120029196 1139168722 206489379 170605266 170605263"/>
    </vehicle>
    <vehicle id="pc418" type="pc" depart="77.89" departLane="free" departSpeed="max" fromTaz="10" toTaz="11">
        <route edges="42064236 170605264 170605269 206489382 43947390 42064235 277653336 206489380 43947382 1120029187 43947368 206489381"/>
    </vehicle>
    <vehicle id="pc2621" type="pc" depart="80.18" departLane="free" departSpeed="max" fromTaz="30" toTaz="11">
        <route edges="277654571 E7 E8 41844004 1120029190 1120029189 E2 E3 43947368 206489381"/>
    </vehicle>
    <vehicle id="pc4505" type="pc" depart="80.40" departLane="free" departSpeed="max" fromTaz="40" toTaz="41">
        <route edges="43948501 660731151 43947385 43947369#0 43947369#1 170601197"/>