<?xml version="1.0" encoding="UTF-8"?>

<!-- generated on 2024-05-17 15:29:52 by Eclipse SUMO duarouter Version 1.19.0
<configuration xmlns:xsi="http://www.w3.org/2001/XMLSchema-instance" xsi:noNamespaceSchemaLocation="http://sumo.dlr.de/xsd/duarouterConfiguration.xsd">

    <input>
        <net-file value=".\SignalApplied.xml"/>
        <route-files value=".\vClass.add.xml,.\odfile.odtrips.xml"/>
    </input>

    <output>
        <output-file value=".\route.rou.xml"/>
    </output>

</configuration>
-->

<routes xmlns:xsi="http://www.w3.org/2001/XMLSchema-instance" xsi:noNamespaceSchemaLocation="http://sumo.dlr.de/xsd/routes_file.xsd">
    <vType id="pc" length="5.00" maxSpeed="55.55" vClass="passenger" laneChangeModel="LC2013" lcStrategic="0" lcCooperative="1" lcSpeedGain="10" lcKeepRight="0" lcAssertive="1" lcOvertakeRight="0.9999" accel="2.6" decel="4.5" sigma="0.3"/>
    <vehicle id="pc63" type="pc" depart="0.79" departLane="free" departSpeed="max" fromTaz="101" toTaz="102">
        <route edges="-E3 E1 E16 E20 E26 382333342#0 382333342#1 E27 37399243#1"/>
    </vehicle>
    <vehicle id="pc7426" type="pc" depart="1.27" departLane="free" departSpeed="max" fromTaz="101" toTaz="102">
        <route edges="-E3 E1 E16 E20 E26 382333342#0 382333342#1 E27 37399243#1"/>
    </vehicle>
    <vehicle id="pc11687" type="pc" depart="1.56" departLane="free" departSpeed="max" fromTaz="201" toTaz="202">
        <route edges="-478969233#0.221 168384657#0 E24 -E19 -916055767#3"/>
    </vehicle>
    <vehicle id="pc14734" type="pc" depart="1.77" departLane="free" departSpeed="max" fromTaz="201" toTaz="202">
        <route edges="-478969233#0.221 168384657#0 E24 -E19 -916055767#3"/>
    </vehicle>
    <vehicle id="pc9352" type="pc" depart="1.77" departLane="free" departSpeed="max" fromTaz="101" toTaz="102">
        <route edges="-E3 E1 E16 E20 E26 382333342#0 382333342#1 E27 37399243#1"/>
    </vehicle>
    <vehicle id="pc3193" type="pc" depart="1.88" departLane="free" departSpeed="max" fromTaz="101" toTaz="102">
        <route edges="-E3 E1 E16 E20 E26 382333342#0 382333342#1 E27 37399243#1"/>
    </vehicle>
    <vehicle id="pc16002" type="pc" depart="1.99" departLane="free" departSpeed="max" fromTaz="201" toTaz="202">
        <route edges="-478969233#0.221 168384657#0 E24 -E19 -916055767#3"/>
    </vehicle>
    <vehicle id="pc13487" type="pc" depart="2.32" departLane="free" departSpeed="max" fromTaz="201" toTaz="202">
        <route edges="-478969233#0.221 168384657#0 E24 -E19 -916055767#3"/>
    </vehicle>
    <vehicle id="pc15527" type="pc" depart="2.55" departLane="free" departSpeed="max" fromTaz="201" toTaz="202">
        <route edges="-478969233#0.221 168384657#0 E24 -E19 -916055767#3"/>
    </vehicle>
    <vehicle id="pc283" type="pc" depart="2.83" departLane="free" departSpeed="max" fromTaz="101" toTaz="102">
        <route edges="-E3 E1 E16 E20 E26 382333342#0 382333342#1 E27 37399243#1"/>
    </vehicle>
    <vehicle id="pc15674" type="pc" depart="3.04" departLane="free" departSpeed="max" fromTaz="201" toTaz="202">
        <route edges="-478969233#0.221 168384657#0 E24 -E19 -916055767#3"/>
    </vehicle>
    <vehicle id="pc12834" type="pc" depart="3.20" departLane="free" departSpeed="max" fromTaz="201" toTaz="202">
        <route edges="-478969233#0.221 168384657#0 E24 -E19 -916055767#3"/>
    </vehicle>
    <vehicle id="pc7797" type="pc" depart="3.42" departLane="free" departSpeed="max" fromTaz="101" toTaz="102">
        <route edges="-E3 E1 E16 E20 E26 382333342#0 382333342#1 E27 37399243#1"/>
    </vehicle>
    <vehicle id="pc14263" type="pc" depart="3.46" departLane="free" departSpeed="max" fromTaz="201" toTaz="202">
        <route edges="-478969233#0.221 168384657#0 E24 -E19 -916055767#3"/>
    </vehicle>
    <vehicle id="pc15257" type="pc" depart="3.81" departLane="free" departSpeed="max" fromTaz="201" toTaz="202">
        <route edges="-478969233#0.221 168384657#0 E24 -E19 -916055767#3"/>
    </vehicle>
    <vehicle id="pc8636" type="pc" depart="4.11" departLane="free" departSpeed="max" fromTaz="101" toTaz="102">
        <route edges="-E3 E1 E16 E20 E26 382333342#0 382333342#1 E27 37399243#1"/>
    </vehicle>
    <vehicle id="pc10815" type="pc" depart="4.28" departLane="free" departSpeed="max" fromTaz="201" toTaz="202">
        <route edges="-478969233#0.221 168384657#0 E24 -E19 -916055767#3"/>
    </vehicle>
    <vehicle id="pc3028" type="pc" depart="4.33" departLane="free" departSpeed="max" fromTaz="101" toTaz="102">
        <route edges="-E3 E1 E16 E20 E26 382333342#0 382333342#1 E27 37399243#1"/>
    </vehicle>
    <vehicle id="pc15192" type="pc" depart="4.40" departLane="free" departSpeed="max" fromTaz="201" toTaz="202">
        <route edges="-478969233#0.221 168384657#0 E24 -E19 -916055767#3"/>
    </vehicle>
    <vehicle id="pc16023" type="pc" depart="4.46" departLane="free" departSpeed="max" fromTaz="201" toTaz="202">
        <route edges="-478969233#0.221 168384657#0 E24 -E19 -916055767#3"/>
    </vehicle>
    <vehicle id="pc519" type="pc" depart="4.77" departLane="free" departSpeed="max" fromTaz="101" toTaz="102">
        <route edges="-E3 E1 E16 E20 E26 382333342#0 382333342#1 E27 37399243#1"/>
    </vehicle>
    <vehicle id="pc3886" type="pc" depart="4.80" departLane="free" departSpeed="max" fromTaz="101" toTaz="102">
        <route edges="-E3 E1 E16 E20 E26 382333342#0 382333342#1 E27 37399243#1"/>
    </vehicle>
    <vehicle id="pc9057" type="pc" depart="4.89" departLane="free" departSpeed="max" fromTaz="101" toTaz="102">
        <route edges="-E3 E1 E16 E20 E26 382333342#0 382333342#1 E27 37399243#1"/>
    </vehicle>
    <vehicle id="pc11347" type="pc" depart="5.21" departLane="free" departSpeed="max" fromTaz="201" toTaz="202">
        <route edges="-478969233#0.221 168384657#0 E24 -E19 -916055767#3"/>
    </vehicle>
    <vehicle id="pc7427" type="pc" depart="5.67" departLane="free" departSpeed="max" fromTaz="101" toTaz="102">
        <route edges="-E3 E1 E16 E20 E26 382333342#0 382333342#1 E27 37399243#1"/>
    </vehicle>
    <vehicle id="pc13101" type="pc" depart="6.01" departLane="free" departSpeed="max" fromTaz="201" toTaz="202">
        <route edges="-478969233#0.221 168384657#0 E24 -E19 -916055767#3"/>
    </vehicle>
    <vehicle id="pc4530" type="pc" depart="6.04" departLane="free" departSpeed="max" fromTaz="101" toTaz="102">
        <route edges="-E3 E1 E16 E20 E26 382333342#0 382333342#1 E27 37399243#1"/>
    </vehicle>
    <vehicle id="pc5972" type="pc" depart="6.68" departLane="free" departSpeed="max" fromTaz="101" toTaz="102">
        <route edges="-E3 E1 E16 E20 E26 382333342#0 382333342#1 E27 37399243#1"/>
    </vehicle>
    <vehicle id="pc9014" type="pc" depart="7.04" departLane="free" departSpeed="max" fromTaz="101" toTaz="102">
        <route edges="-E3 E1 E16 E20 E26 382333342#0 382333342#1 E27 37399243#1"/>
    </vehicle>
    <vehicle id="pc12797" type="pc" depart="7.17" departLane="free" departSpeed="max" fromTaz="201" toTaz="202">
        <route edges="-478969233#0.221 168384657#0 E24 -E19 -916055767#3"/>
    </vehicle>
    <vehicle id="pc3064" type="pc" depart="7.36" departLane="free" departSpeed="max" fromTaz="101" toTaz="102">
        <route edges="-E3 E1 E16 E20 E26 382333342#0 382333342#1 E27 37399243#1"/>
    </vehicle>
    <vehicle id="pc5464" type="pc" depart="7.63" departLane="free" departSpeed="max" fromTaz="101" toTaz="102">
        <route edges="-E3 E1 E16 E20 E26 382333342#0 382333342#1 E27 37399243#1"/>
    </vehicle>
    <vehicle id="pc9771" type="pc" depart="7.77" departLane="free" departSpeed="max" fromTaz="101" toTaz="102">
        <route edges="-E3 E1 E16 E20 E26 382333342#0 382333342#1 E27 37399243#1"/>
    </vehicle>
    <vehicle id="pc14151" type="pc" depart="8.06" departLane="free" departSpeed="max" fromTaz="201" toTaz="202">
        <route edges="-478969233#0.221 168384657#0 E24 -E19 -916055767#3"/>
    </vehicle>
    <vehicle id="pc16595" type="pc" depart="8.37" departLane="free" departSpeed="max" fromTaz="201" toTaz="202">
        <route edges="-478969233#0.221 168384657#0 E24 -E19 -916055767#3"/>
    </vehicle>
    <vehicle id="pc13289" type="pc" depart="8.59" departLane="free" departSpeed="max" fromTaz="201" toTaz="202">
        <route edges="-478969233#0.221 168384657#0 E24 -E19 -916055767#3"/>
    </vehicle>
    <vehicle id="pc4140" type="pc" depart="8.70" departLane="free" departSpeed="max" fromTaz="101" toTaz="102">
        <route edges="-E3 E1 E16 E20 E26 382333342#0 382333342#1 E27 37399243#1"/>
    </vehicle>
    <vehicle id="pc5749" type="pc" depart="8.97" departLane="free" departSpeed="max" fromTaz="101" toTaz="102">
        <route edges="-E3 E1 E16 E20 E26 382333342#0 382333342#1 E27 37399243#1"/>
    </vehicle>
    <vehicle id="pc10617" type="pc" depart="9.11" departLane="free" departSpeed="max" fromTaz="201" toTaz="202">
        <route edges="-478969233#0.221 168384657#0 E24 -E19 -916055767#3"/>
    </vehicle>
    <vehicle id="pc14894" type="pc" depart="9.28" departLane="free" departSpeed="max" fromTaz="201" toTaz="202">
        <route edges="-478969233#0.221 168384657#0 E24 -E19 -916055767#3"/>
    </vehicle>
    <vehicle id="pc7086" type="pc" depart="9.39" departLane="free" departSpeed="max" fromTaz="101" toTaz="102">
        <route edges="-E3 E1 E16 E20 E26 382333342#0 382333342#1 E27 37399243#1"/>
    </vehicle>
    <vehicle id="pc10602" type="pc" depart="9.75" departLane="free" departSpeed="max" fromTaz="201" toTaz="202">
        <route edges="-478969233#0.221 168384657#0 E24 -E19 -916055767#3"/>
    </vehicle>
    <vehicle id="pc12152" type="pc" depart="9.91" departLane="free" departSpeed="max" fromTaz="201" toTaz="202">
        <route edges="-478969233#0.221 168384657#0 E24 -E19 -916055767#3"/>
    </vehicle>
    <vehicle id="pc11008" type="pc" depart="10.34" departLane="free" departSpeed="max" fromTaz="201" toTaz="202">
        <route edges="-478969233#0.221 168384657#0 E24 -E19 -916055767#3"/>
    </vehicle>
    <vehicle id="pc2255" type="pc" depart="10.87" departLane="free" departSpeed="max" fromTaz="101" toTaz="102">
        <route edges="-E3 E1 E16 E20 E26 382333342#0 382333342#1 E27 37399243#1"/>
    </vehicle>
    <vehicle id="pc3020" type="pc" depart="11.00" departLane="free" departSpeed="max" fromTaz="101" toTaz="102">
        <route edges="-E3 E1 E16 E20 E26 382333342#0 382333342#1 E27 37399243#1"/>
    </vehicle>
    <vehicle id="pc8858" type="pc" depart="11.03" departLane="free" departSpeed="max" fromTaz="101" toTaz="102">
        <route edges="-E3 E1 E16 E20 E26 382333342#0 382333342#1 E27 37399243#1"/>
    </vehicle>
    <vehicle id="pc245" type="pc" depart="11.12" departLane="free" departSpeed="max" fromTaz="101" toTaz="102">
        <route edges="-E3 E1 E16 E20 E26 382333342#0 382333342#1 E27 37399243#1"/>
    </vehicle>
    <vehicle id="pc15822" type="pc" depart="11.14" departLane="free" departSpeed="max" fromTaz="201" toTaz="202">
        <route edges="-478969233#0.221 168384657#0 E24 -E19 -916055767#3"/>
    </vehicle>
    <vehicle id="pc2653" type="pc" depart="11.33" departLane="free" departSpeed="max" fromTaz="101" toTaz="102">
        <route edges="-E3 E1 E16 E20 E26 382333342#0 382333342#1 E27 37399243#1"/>
    </vehicle>
    <vehicle id="pc2378" type="pc" depart="11.57" departLane="free" departSpeed="max" fromTaz="101" toTaz="102">
        <route edges="-E3 E1 E16 E20 E26 382333342#0 382333342#1 E27 37399243#1"/>
    </vehicle>
    <vehicle id="pc4240" type="pc" depart="11.71" departLane="free" departSpeed="max" fromTaz="101" toTaz="102">
        <route edges="-E3 E1 E16 E20 E26 382333342#0 382333342#1 E27 37399243#1"/>
    </vehicle>
    <vehicle id="pc6508" type="pc" depart="11.86" departLane="free" departSpeed="max" fromTaz="101" toTaz="102">
        <route edges="-E3 E1 E16 E20 E26 382333342#0 382333342#1 E27 37399243#1"/>
    </vehicle>
    <vehicle id="pc8812" type="pc" depart="12.00" departLane="free" departSpeed="max" fromTaz="101" toTaz="102">
        <route edges="-E3 E1 E16 E20 E26 382333342#0 382333342#1 E27 37399243#1"/>
    </vehicle>
    <vehicle id="pc16484" type="pc" depart="12.17" departLane="free" departSpeed="max" fromTaz="201" toTaz="202">
        <route edges="-478969233#0.221 168384657#0 E24 -E19 -916055767#3"/>
    </vehicle>
    <vehicle id="pc4760" type="pc" depart="12.17" departLane="free" departSpeed="max" fromTaz="101" toTaz="102">
        <route edges="-E3 E1 E16 E20 E26 382333342#0 382333342#1 E27 37399243#1"/>
    </vehicle>
    <vehicle id="pc13420" type="pc" depart="12.78" departLane="free" departSpeed="max" fromTaz="201" toTaz="202">
        <route edges="-478969233#0.221 168384657#0 E24 -E19 -916055767#3"/>
    </vehicle>
    <vehicle id="pc8671" type="pc" depart="13.54" departLane="free" departSpeed="max" fromTaz="101" toTaz="102">
        <route edges="-E3 E1 E16 E20 E26 382333342#0 382333342#1 E27 37399243#1"/>
    </vehicle>
    <vehicle id="pc15226" type="pc" depart="14.03" departLane="free" departSpeed="max" fromTaz="201" toTaz="202">
        <route edges="-478969233#0.221 168384657#0 E24 -E19 -916055767#3"/>
    </vehicle>
    <vehicle id="pc13277" type="pc" depart="14.05" departLane="free" departSpeed="max" fromTaz="201" toTaz="202">
        <route edges="-478969233#0.221 168384657#0 E24 -E19 -916055767#3"/>
    </vehicle>
    <vehicle id="pc1581" type="pc" depart="14.07" departLane="free" departSpeed="max" fromTaz="101" toTaz="102">
        <route edges="-E3 E1 E16 E20 E26 382333342#0 382333342#1 E27 37399243#1"/>
    </vehicle>
    <vehicle id="pc10693" type="pc" depart="14.52" departLane="free" departSpeed="max" fromTaz="201" toTaz="202">
        <route edges="-478969233#0.221 168384657#0 E24 -E19 -916055767#3"/>
    </vehicle>
    <vehicle id="pc10841" type="pc" depart="14.79" departLane="free" departSpeed="max" fromTaz="201" toTaz="202">
        <route edges="-478969233#0.221 168384657#0 E24 -E19 -916055767#3"/>
    </vehicle>
    <vehicle id="pc16392" type="pc" depart="14.93" departLane="free" departSpeed="max" fromTaz="201" toTaz="202">
        <route edges="-478969233#0.221 168384657#0 E24 -E19 -916055767#3"/>
    </vehicle>
    <vehicle id="pc11005" type="pc" depart="15.36" departLane="free" departSpeed="max" fromTaz="201" toTaz="202">
        <route edges="-478969233#0.221 168384657#0 E24 -E19 -916055767#3"/>
    </vehicle>
    <vehicle id="pc6905" type="pc" depart="15.55" departLane="free" departSpeed="max" fromTaz="101" toTaz="102">
        <route edges="-E3 E1 E16 E20 E26 382333342#0 382333342#1 E27 37399243#1"/>
    </vehicle>
    <vehicle id="pc6853" type="pc" depart="15.74" departLane="free" departSpeed="max" fromTaz="101" toTaz="102">
        <route edges="-E3 E1 E16 E20 E26 382333342#0 382333342#1 E27 37399243#1"/>
    </vehicle>
    <vehicle id="pc6240" type="pc" depart="15.75" departLane="free" departSpeed="max" fromTaz="101" toTaz="102">
        <route edges="-E3 E1 E16 E20 E26 382333342#0 382333342#1 E27 37399243#1"/>
    </vehicle>
    <vehicle id="pc2551" type="pc" depart="15.90" departLane="free" departSpeed="max" fromTaz="101" toTaz="102">
        <route edges="-E3 E1 E16 E20 E26 382333342#0 382333342#1 E27 37399243#1"/>
    </vehicle>
    <vehicle id="pc16586" type="pc" depart="15.94" departLane="free" departSpeed="max" fromTaz="201" toTaz="202">
        <route edges="-478969233#0.221 168384657#0 E24 -E19 -916055767#3"/>
    </vehicle>
    <vehicle id="pc1351" type="pc" depart="16.08" departLane="free" departSpeed="max" fromTaz="101" toTaz="102">
        <route edges="-E3 E1 E16 E20 E26 382333342#0 382333342#1 E27 37399243#1"/>
    </vehicle>
    <vehicle id="pc3876" type="pc" depart="16.08" departLane="free" departSpeed="max" fromTaz="101" toTaz="102">
        <route edges="-E3 E1 E16 E20 E26 382333342#0 382333342#1 E27 37399243#1"/>
    </vehicle>
    <vehicle id="pc16022" type="pc" depart="16.33" departLane="free" departSpeed="max" fromTaz="201" toTaz="202">
        <route edges="-478969233#0.221 168384657#0 E24 -E19 -916055767#3"/>
    </vehicle>
    <vehicle id="pc16686" type="pc" depart="16.40" departLane="free" departSpeed="max" fromTaz="201" toTaz="202">
        <route edges="-478969233#0.221 168384657#0 E24 -E19 -916055767#3"/>
    </vehicle>
    <vehicle id="pc12822" type="pc" depart="16.54" departLane="free" departSpeed="max" fromTaz="201" toTaz="202">
        <route edges="-478969233#0.221 168384657#0 E24 -E19 -916055767#3"/>
    </vehicle>
    <vehicle id="pc88" type="pc" depart="16.72" departLane="free" departSpeed="max" fromTaz="101" toTaz="102">
        <route edges="-E3 E1 E16 E20 E26 382333342#0 382333342#1 E27 37399243#1"/>
    </vehicle>
    <vehicle id="pc14442" type="pc" depart="18.08" departLane="free" departSpeed="max" fromTaz="201" toTaz="202">
        <route edges="-478969233#0.221 168384657#0 E24 -E19 -916055767#3"/>
    </vehicle>
    <vehicle id="pc8430" type="pc" depart="18.10" departLane="free" departSpeed="max" fromTaz="101" toTaz="102">
        <route edges="-E3 E1 E16 E20 E26 382333342#0 382333342#1 E27 37399243#1"/>
    </vehicle>
    <vehicle id="pc4616" type="pc" depart="18.30" departLane="free" departSpeed="max" fromTaz="101" toTaz="102">
        <route edges="-E3 E1 E16 E20 E26 382333342#0 382333342#1 E27 37399243#1"/>
    </vehicle>
    <vehicle id="pc9" type="pc" depart="18.39" departLane="free" departSpeed="max" fromTaz="101" toTaz="102">
        <route edges="-E3 E1 E16 E20 E26 382333342#0 382333342#1 E27 37399243#1"/>
    </vehicle>
    <vehicle id="pc4640" type="pc" depart="18.64" departLane="free" departSpeed="max" fromTaz="101" toTaz="102">
        <route edges="-E3 E1 E16 E20 E26 382333342#0 382333342#1 E27 37399243#1"/>
    </vehicle>
    <vehicle id="pc6767" type="pc" depart="18.68" departLane="free" departSpeed="max" fromTaz="101" toTaz="102">
        <route edges="-E3 E1 E16 E20 E26 382333342#0 382333342#1 E27 37399243#1"/>
    </vehicle>
    <vehicle id="pc3463" type="pc" depart="18.86" departLane="free" departSpeed="max" fromTaz="101" toTaz="102">
        <route edges="-E3 E1 E16 E20 E26 382333342#0 382333342#1 E27 37399243#1"/>
    </vehicle>
    <vehicle id="pc8523" type="pc" depart="18.86" departLane="free" departSpeed="max" fromTaz="101" toTaz="102">
        <route edges="-E3 E1 E16 E20 E26 382333342#0 382333342#1 E27 37399243#1"/>
    </vehicle>
    <vehicle id="pc11009" type="pc" depart="18.93" departLane="free" departSpeed="max" fromTaz="201" toTaz="202">
        <route edges="-478969233#0.221 168384657#0 E24 -E19 -916055767#3"/>
    </vehicle>
    <vehicle id="pc4545" type="pc" depart="18.94" departLane="free" departSpeed="max" fromTaz="101" toTaz="102">
        <route edges="-E3 E1 E16 E20 E26 382333342#0 382333342#1 E27 37399243#1"/>
    </vehicle>
    <vehicle id="pc749" type="pc" depart="18.97" departLane="free" departSpeed="max" fromTaz="101" toTaz="102">
        <route edges="-E3 E1 E16 E20 E26 382333342#0 382333342#1 E27 37399243#1"/>
    </vehicle>
    <vehicle id="pc9157" type="pc" depart="19.13" departLane="free" departSpeed="max" fromTaz="101" toTaz="102">
        <route edges="-E3 E1 E16 E20 E26 382333342#0 382333342#1 E27 37399243#1"/>
    </vehicle>
    <vehicle id="pc9549" type="pc" depart="19.39" departLane="free" departSpeed="max" fromTaz="101" toTaz="102">
        <route edges="-E3 E1 E16 E20 E26 382333342#0 382333342#1 E27 37399243#1"/>
    </vehicle>
    <vehicle id="pc412" type="pc" depart="19.61" departLane="free" departSpeed="max" fromTaz="101" toTaz="102">
        <route edges="-E3 E1 E16 E20 E26 382333342#0 382333342#1 E27 37399243#1"/>
    </vehicle>
    <vehicle id="pc12037" type="pc" depart="19.61" departLane="free" departSpeed="max" fromTaz="201" toTaz="202">
        <route edges="-478969233#0.221 168384657#0 E24 -E19 -916055767#3"/>
    </vehicle>
    <vehicle id="pc4912" type="pc" depart="19.62" departLane="free" departSpeed="max" fromTaz="101" toTaz="102">
        <route edges="-E3 E1 E16 E20 E26 382333342#0 382333342#1 E27 37399243#1"/>
    </vehicle>
    <vehicle id="pc2525" type="pc" depart="19.73" departLane="free" departSpeed="max" fromTaz="101" toTaz="102">
        <route edges="-E3 E1 E16 E20 E26 382333342#0 382333342#1 E27 37399243#1"/>
    </vehicle>
    <vehicle id="pc8778" type="pc" depart="20.38" departLane="free" departSpeed="max" fromTaz="101" toTaz="102">
        <route edges="-E3 E1 E16 E20 E26 382333342#0 382333342#1 E27 37399243#1"/>
    </vehicle>
    <vehicle id="pc11746" type="pc" depart="20.61" departLane="free" departSpeed="max" fromTaz="201" toTaz="202">
        <route edges="-478969233#0.221 168384657#0 E24 -E19 -916055767#3"/>
    </vehicle>
    <vehicle id="pc12717" type="pc" depart="20.99" departLane="free" departSpeed="max" fromTaz="201" toTaz="202">
        <route edges="-478969233#0.221 168384657#0 E24 -E19 -916055767#3"/>
    </vehicle>
    <vehicle id="pc4638" type="pc" depart="21.21" departLane="free" departSpeed="max" fromTaz="101" toTaz="102">
        <route edges="-E3 E1 E16 E20 E26 382333342#0 382333342#1 E27 37399243#1"/>
    </vehicle>
    <vehicle id="pc7955" type="pc" depart="21.49" departLane="free" departSpeed="max" fromTaz="101" toTaz="102">
        <route edges="-E3 E1 E16 E20 E26 382333342#0 382333342#1 E27 37399243#1"/>
    </vehicle>
    <vehicle id="pc1599" type="pc" depart="21.76" departLane="free" departSpeed="max" fromTaz="101" toTaz="102">
        <route edges="-E3 E1 E16 E20 E26 382333342#0 382333342#1 E27 37399243#1"/>
    </vehicle>
    <vehicle id="pc10572" type="pc" depart="22.09" departLane="free" departSpeed="max" fromTaz="201" toTaz="202">
        <route edges="-478969233#0.221 168384657#0 E24 -E19 -916055767#3"/>
    </vehicle>
    <vehicle id="pc4652" type="pc" depart="22.42" departLane="free" departSpeed="max" fromTaz="101" toTaz="102">
        <route edges="-E3 E1 E16 E20 E26 382333342#0 382333342#1 E27 37399243#1"/>
    </vehicle>
    <vehicle id="pc12078" type="pc" depart="22.53" departLane="free" departSpeed="max" fromTaz="201" toTaz="202">
        <route edges="-478969233#0.221 168384657#0 E24 -E19 -916055767#3"/>
    </vehicle>
    <vehicle id="pc8045" type="pc" depart="22.68" departLane="free" departSpeed="max" fromTaz="101" toTaz="102">
        <route edges="-E3 E1 E16 E20 E26 382333342#0 382333342#1 E27 37399243#1"/>
    </vehicle>
    <vehicle id="pc3045" type="pc" depart="22.69" departLane="free" departSpeed="max" fromTaz="101" toTaz="102">
        <route edges="-E3 E1 E16 E20 E26 382333342#0 382333342#1 E27 37399243#1"/>
    </vehicle>
    <vehicle id="pc13126" type="pc" depart="22.77" departLane="free" departSpeed="max" fromTaz="201" toTaz="202">
        <route edges="-478969233#0.221 168384657#0 E24 -E19 -916055767#3"/>
    </vehicle>
    <vehicle id="pc15018" type="pc" depart="22.79" departLane="free" departSpeed="max" fromTaz="201" toTaz="202">
        <route edges="-478969233#0.221 168384657#0 E24 -E19 -916055767#3"/>
    </vehicle>
    <vehicle id="pc1397" type="pc" depart="22.82" departLane="free" departSpeed="max" fromTaz="101" toTaz="102">
        <route edges="-E3 E1 E16 E20 E26 382333342#0 382333342#1 E27 37399243#1"/>
    </vehicle>
    <vehicle id="pc391" type="pc" depart="23.05" departLane="free" departSpeed="max" fromTaz="101" toTaz="102">
        <route edges="-E3 E1 E16 E20 E26 382333342#0 382333342#1 E27 37399243#1"/>
    </vehicle>
    <vehicle id="pc8396" type="pc" depart="23.34" departLane="free" departSpeed="max" fromTaz="101" toTaz="102">
        <route edges="-E3 E1 E16 E20 E26 382333342#0 382333342#1 E27 37399243#1"/>
    </vehicle>
    <vehicle id="pc14093" type="pc" depart="23.71" departLane="free" departSpeed="max" fromTaz="201" toTaz="202">
        <route edges="-478969233#0.221 168384657#0 E24 -E19 -916055767#3"/>
    </vehicle>
    <vehicle id="pc4289" type="pc" depart="23.87" departLane="free" departSpeed="max" fromTaz="101" toTaz="102">
        <route edges="-E3 E1 E16 E20 E26 382333342#0 382333342#1 E27 37399243#1"/>
    </vehicle>
    <vehicle id="pc1144" type="pc" depart="23.89" departLane="free" departSpeed="max" fromTaz="101" toTaz="102">
        <route edges="-E3 E1 E16 E20 E26 382333342#0 382333342#1 E27 37399243#1"/>
    </vehicle>
    <vehicle id="pc14395" type="pc" depart="24.03" departLane="free" departSpeed="max" fromTaz="201" toTaz="202">
        <route edges="-478969233#0.221 168384657#0 E24 -E19 -916055767#3"/>
    </vehicle>
    <vehicle id="pc6890" type="pc" depart="24.09" departLane="free" departSpeed="max" fromTaz="101" toTaz="102">
        <route edges="-E3 E1 E16 E20 E26 382333342#0 382333342#1 E27 37399243#1"/>
    </vehicle>
    <vehicle id="pc12541" type="pc" depart="24.38" departLane="free" departSpeed="max" fromTaz="201" toTaz="202">
        <route edges="-478969233#0.221 168384657#0 E24 -E19 -916055767#3"/>
    </vehicle>
    <vehicle id="pc1428" type="pc" depart="24.44" departLane="free" departSpeed="max" fromTaz="101" toTaz="102">
        <route edges="-E3 E1 E16 E20 E26 382333342#0 382333342#1 E27 37399243#1"/>
    </vehicle>
    <vehicle id="pc5816" type="pc" depart="24.61" departLane="free" departSpeed="max" fromTaz="101" toTaz="102">
        <route edges="-E3 E1 E16 E20 E26 382333342#0 382333342#1 E27 37399243#1"/>
    </vehicle>
    <vehicle id="pc6381" type="pc" depart="24.78" departLane="free" departSpeed="max" fromTaz="101" toTaz="102">
        <route edges="-E3 E1 E16 E20 E26 382333342#0 382333342#1 E27 37399243#1"/>
    </vehicle>
    <vehicle id="pc10368" type="pc" depart="24.79" departLane="free" departSpeed="max" fromTaz="201" toTaz="202">
        <route edges="-478969233#0.221 168384657#0 E24 -E19 -916055767#3"/>
    </vehicle>
    <vehicle id="pc9400" type="pc" depart="24.99" departLane="free" departSpeed="max" fromTaz="101" toTaz="102">
        <route edges="-E3 E1 E16 E20 E26 382333342#0 382333342#1 E27 37399243#1"/>
    </vehicle>
    <vehicle id="pc9776" type="pc" depart="25.12" departLane="free" departSpeed="max" fromTaz="101" toTaz="102">
        <route edges="-E3 E1 E16 E20 E26 382333342#0 382333342#1 E27 37399243#1"/>
    </vehicle>
    <vehicle id="pc3304" type="pc" depart="25.12" departLane="free" departSpeed="max" fromTaz="101" toTaz="102">
        <route edges="-E3 E1 E16 E20 E26 382333342#0 382333342#1 E27 37399243#1"/>
    </vehicle>
    <vehicle id="pc6848" type="pc" depart="25.34" departLane="free" departSpeed="max" fromTaz="101" toTaz="102">
        <route edges="-E3 E1 E16 E20 E26 382333342#0 382333342#1 E27 37399243#1"/>
    </vehicle>
    <vehicle id="pc3801" type="pc" depart="25.71" departLane="free" departSpeed="max" fromTaz="101" toTaz="102">
        <route edges="-E3 E1 E16 E20 E26 382333342#0 382333342#1 E27 37399243#1"/>
    </vehicle>
    <vehicle id="pc3636" type="pc" depart="25.74" departLane="free" departSpeed="max" fromTaz="101" toTaz="102">
        <route edges="-E3 E1 E16 E20 E26 382333342#0 382333342#1 E27 37399243#1"/>
    </vehicle>
    <vehicle id="pc1775" type="pc" depart="25.86" departLane="free" departSpeed="max" fromTaz="101" toTaz="102">
        <route edges="-E3 E1 E16 E20 E26 382333342#0 382333342#1 E27 37399243#1"/>
    </vehicle>
    <vehicle id="pc5353" type="pc" depart="26.95" departLane="free" departSpeed="max" fromTaz="101" toTaz="102">
        <route edges="-E3 E1 E16 E20 E26 382333342#0 382333342#1 E27 37399243#1"/>
    </vehicle>
    <vehicle id="pc3436" type="pc" depart="27.26" departLane="free" departSpeed="max" fromTaz="101" toTaz="102">
        <route edges="-E3 E1 E16 E20 E26 382333342#0 382333342#1 E27 37399243#1"/>
    </vehicle>
    <vehicle id="pc10264" type="pc" depart="27.33" departLane="free" departSpeed="max" fromTaz="201" toTaz="202">
        <route edges="-478969233#0.221 168384657#0 E24 -E19 -916055767#3"/>
    </vehicle>
    <vehicle id="pc6394" type="pc" depart="27.62" departLane="free" departSpeed="max" fromTaz="101" toTaz="102">
        <route edges="-E3 E1 E16 E20 E26 382333342#0 382333342#1 E27 37399243#1"/>
    </vehicle>
    <vehicle id="pc15635" type="pc" depart="27.76" departLane="free" departSpeed="max" fromTaz="201" toTaz="202">
        <route edges="-478969233#0.221 168384657#0 E24 -E19 -916055767#3"/>
    </vehicle>
    <vehicle id="pc8661" type="pc" depart="27.79" departLane="free" departSpeed="max" fromTaz="101" toTaz="102">
        <route edges="-E3 E1 E16 E20 E26 382333342#0 382333342#1 E27 37399243#1"/>
    </vehicle>
    <vehicle id="pc10168" type="pc" depart="27.92" departLane="free" departSpeed="max" fromTaz="201" toTaz="202">
        <route edges="-478969233#0.221 168384657#0 E24 -E19 -916055767#3"/>
    </vehicle>
    <vehicle id="pc13928" type="pc" depart="28.04" departLane="free" departSpeed="max" fromTaz="201" toTaz="202">
        <route edges="-478969233#0.221 168384657#0 E24 -E19 -916055767#3"/>
    </vehicle>
    <vehicle id="pc5468" type="pc" depart="28.04" departLane="free" departSpeed="max" fromTaz="101" toTaz="102">
        <route edges="-E3 E1 E16 E20 E26 382333342#0 382333342#1 E27 37399243#1"/>
    </vehicle>
    <vehicle id="pc13147" type="pc" depart="28.63" departLane="free" departSpeed="max" fromTaz="201" toTaz="202">
        <route edges="-478969233#0.221 168384657#0 E24 -E19 -916055767#3"/>
    </vehicle>
    <vehicle id="pc7048" type="pc" depart="28.74" departLane="free" departSpeed="max" fromTaz="101" toTaz="102">
        <route edges="-E3 E1 E16 E20 E26 382333342#0 382333342#1 E27 37399243#1"/>
    </vehicle>
    <vehicle id="pc15273" type="pc" depart="28.87" departLane="free" departSpeed="max" fromTaz="201" toTaz="202">
        <route edges="-478969233#0.221 168384657#0 E24 -E19 -916055767#3"/>
    </vehicle>
    <vehicle id="pc12267" type="pc" depart="29.00" departLane="free" departSpeed="max" fromTaz="201" toTaz="202">
        <route edges="-478969233#0.221 168384657#0 E24 -E19 -916055767#3"/>
    </vehicle>
    <vehicle id="pc5416" type="pc" depart="29.39" departLane="free" departSpeed="max" fromTaz="101" toTaz="102">