<additional>
<tazs>
    <taz id="101" edges="-E3"/>
    <taz id="102" edges="37399243#1"/>
    <taz id="201" edges="-478969233#0.221"/>
    <taz id="202" edges="-916055767#3"/>

</tazs>
</additional>