<?xml version="1.0" encoding="UTF-8"?>

<!-- generated on 2024-05-31 17:15:03 by Eclipse SUMO netedit Version 1.19.0
<configuration xmlns:xsi="http://www.w3.org/2001/XMLSchema-instance" xsi:noNamespaceSchemaLocation="http://sumo.dlr.de/xsd/neteditConfiguration.xsd">

    <input>
        <sumo-net-file value="C:\Users\TLSYSLAB_3_ADMIN\Documents\Git\TIL_1hour\SUMO\97_grid\singal.net.xml"/>
    </input>

    <output>
        <output-file value="C:\Users\TLSYSLAB_3_ADMIN\Documents\Git\TIL_1hour\SUMO\97_grid\singal.net.xml"/>
    </output>

    <processing>
        <geometry.min-radius.fix.railways value="false"/>
        <geometry.max-grade.fix value="false"/>
        <offset.disable-normalization value="true"/>
        <lefthand value="0"/>
    </processing>

    <junctions>
        <no-turnarounds value="true"/>
        <junctions.corner-detail value="5"/>
        <junctions.limit-turn-speed value="5.50"/>
        <rectangular-lane-cut value="0"/>
    </junctions>

    <pedestrian>
        <walkingareas value="0"/>
    </pedestrian>

</configuration>
-->

<net version="1.16" junctionCornerDetail="5" limitTurnSpeed="5.50" xmlns:xsi="http://www.w3.org/2001/XMLSchema-instance" xsi:noNamespaceSchemaLocation="http://sumo.dlr.de/xsd/net_file.xsd">

    <location netOffset="-329774.10,-4119562.78" convBoundary="1227.58,0.00,3516.52,18388.10" origBoundary="127.079533,37.207253,127.144627,37.373108" projParameter="+proj=utm +zone=52 +ellps=WGS84 +datum=WGS84 +units=m +no_defs"/>

    <type id="highway.motorway" priority="14" numLanes="2" speed="39.44" allow="private emergency authority army vip passenger hov taxi bus coach delivery truck trailer motorcycle evehicle custom1 custom2" oneway="1"/>
    <type id="highway.motorway_link" priority="9" numLanes="1" speed="22.22" allow="private emergency authority army vip passenger hov taxi bus coach delivery truck trailer motorcycle evehicle custom1 custom2" oneway="1"/>

    <edge id=":J1_0" function="internal">
        <lane id=":J1_0_0" index="0" speed="6.70" length="9.56" shape="2938.71,8834.08 2938.32,8831.51 2937.19,8829.67 2935.33,8828.56 2932.73,8828.18"/>
    </edge>
    <edge id=":J1_1" function="internal">
        <lane id=":J1_1_0" index="0" speed="13.89" length="27.57" shape="2938.71,8834.08 2938.30,8806.56"/>
        <lane id=":J1_1_1" index="1" speed="13.89" length="27.57" shape="2941.91,8834.05 2941.50,8806.49"/>
        <lane id=":J1_1_2" index="2" speed="13.89" length="27.57" shape="2945.11,8834.03 2944.70,8806.42"/>
    </edge>
    <edge id=":J1_4" function="internal">
        <lane id=":J1_4_0" index="0" speed="10.34" length="4.76" shape="2945.11,8834.03 2945.75,8829.31"/>
    </edge>
    <edge id=":J1_20" function="internal">
        <lane id=":J1_20_0" index="0" speed="10.34" length="19.97" shape="2945.75,8829.31 2946.02,8827.29 2948.88,8822.51 2953.67,8819.67 2960.41,8818.79"/>
    </edge>
    <edge id=":J1_5" function="internal">
        <lane id=":J1_5_0" index="0" speed="6.47" length="9.03" shape="2960.30,8828.39 2957.84,8828.71 2956.09,8829.75 2955.04,8831.49 2954.71,8833.95"/>
    </edge>
    <edge id=":J1_6" function="internal">
        <lane id=":J1_6_0" index="0" speed="13.89" length="27.60" shape="2960.30,8828.39 2932.73,8828.18"/>
        <lane id=":J1_6_1" index="1" speed="13.89" length="27.60" shape="2960.33,8825.19 2932.74,8824.98"/>
        <lane id=":J1_6_2" index="2" speed="13.89" length="27.60" shape="2960.37,8821.99 2932.75,8821.78"/>
    </edge>
    <edge id=":J1_9" function="internal">
        <lane id=":J1_9_0" index="0" speed="10.60" length="4.89" shape="2960.37,8821.99 2955.54,8821.24"/>
    </edge>
    <edge id=":J1_21" function="internal">
        <lane id=":J1_21_0" index="0" speed="10.60" length="20.13" shape="2955.54,8821.24 2953.64,8820.95 2948.79,8818.01 2945.80,8813.16 2944.70,8806.42"/>
    </edge>
    <edge id=":J1_10" function="internal">
        <lane id=":J1_10_0" index="0" speed="6.86" length="9.91" shape="2954.29,8806.20 2954.73,8808.88 2955.91,8810.81 2957.83,8811.98 2960.48,8812.39"/>
    </edge>
    <edge id=":J1_11" function="internal">
        <lane id=":J1_11_0" index="0" speed="13.89" length="27.71" shape="2954.29,8806.20 2954.71,8833.95"/>
        <lane id=":J1_11_1" index="1" speed="13.89" length="27.71" shape="2951.09,8806.27 2951.51,8833.98"/>
        <lane id=":J1_11_2" index="2" speed="13.89" length="27.71" shape="2947.89,8806.35 2948.31,8834.00"/>
    </edge>
    <edge id=":J1_14" function="internal">
        <lane id=":J1_14_0" index="0" speed="10.33" length="5.26" shape="2947.89,8806.35 2947.26,8811.57"/>
    </edge>
    <edge id=":J1_22" function="internal">
        <lane id=":J1_22_0" index="0" speed="10.33" length="19.55" shape="2947.26,8811.57 2947.08,8813.12 2944.28,8817.95 2939.50,8820.84 2932.75,8821.78"/>
    </edge>
    <edge id=":J1_15" function="internal">
        <lane id=":J1_15_0" index="0" speed="6.45" length="9.03" shape="2932.78,8812.18 2935.24,8811.84 2936.98,8810.79 2938.00,8809.03 2938.30,8806.56"/>
    </edge>
    <edge id=":J1_16" function="internal">
        <lane id=":J1_16_0" index="0" speed="13.89" length="27.68" shape="2932.78,8812.18 2960.48,8812.39"/>
        <lane id=":J1_16_1" index="1" speed="13.89" length="27.68" shape="2932.77,8815.38 2960.45,8815.59"/>
        <lane id=":J1_16_2" index="2" speed="13.89" length="27.68" shape="2932.76,8818.58 2960.41,8818.79"/>
    </edge>
    <edge id=":J1_19" function="internal">
        <lane id=":J1_19_0" index="0" speed="10.49" length="5.18" shape="2932.76,8818.58 2937.89,8819.33"/>
    </edge>
    <edge id=":J1_23" function="internal">
        <lane id=":J1_23_0" index="0" speed="10.49" length="19.73" shape="2937.89,8819.33 2939.52,8819.57 2944.36,8822.46 2947.29,8827.28 2948.31,8834.00"/>
    </edge>
    <edge id=":J2_0" function="internal">
        <lane id=":J2_0_0" index="0" speed="6.75" length="9.59" shape="2934.01,8615.29 2933.58,8612.73 2932.42,8610.90 2930.54,8609.79 2927.93,8609.41"/>
    </edge>
    <edge id=":J2_1" function="internal">
        <lane id=":J2_1_0" index="0" speed="13.89" length="27.43" shape="2934.01,8615.29 2933.60,8587.82"/>
        <lane id=":J2_1_1" index="1" speed="13.89" length="27.43" shape="2937.21,8615.22 2936.80,8587.80"/>
        <lane id=":J2_1_2" index="2" speed="13.89" length="27.43" shape="2940.41,8615.15 2940.00,8587.77"/>
    </edge>
    <edge id=":J2_4" function="internal">
        <lane id=":J2_4_0" index="0" speed="10.37" length="5.26" shape="2940.41,8615.15 2941.04,8609.93"/>
    </edge>
    <edge id=":J2_20" function="internal">
        <lane id=":J2_20_0" index="0" speed="10.37" length="19.36" shape="2941.04,8609.93 2941.21,8608.47 2943.98,8603.65 2948.70,8600.70 2955.38,8599.63"/>
    </edge>
    <edge id=":J2_5" function="internal">
        <lane id=":J2_5_0" index="0" speed="6.52" length="9.09" shape="2955.56,8609.22 2953.08,8609.62 2951.33,8610.70 2950.30,8612.48 2950.00,8614.93"/>
    </edge>
    <edge id=":J2_6" function="internal">
        <lane id=":J2_6_0" index="0" speed="13.89" length="27.55" shape="2955.56,8609.22 2927.93,8609.41"/>
        <lane id=":J2_6_1" index="1" speed="13.89" length="27.55" shape="2955.50,8606.02 2927.95,8606.21"/>
        <lane id=":J2_6_2" index="2" speed="13.89" length="27.55" shape="2955.44,8602.82 2927.97,8603.01"/>
    </edge>
    <edge id=":J2_9" function="internal">
        <lane id=":J2_9_0" index="0" speed="10.35" length="5.45" shape="2955.44,8602.82 2950.03,8602.15"/>
    </edge>
    <edge id=":J2_21" function="internal">
        <lane id=":J2_21_0" index="0" speed="10.35" length="19.20" shape="2950.03,8602.15 2948.73,8601.99 2943.92,8599.21 2941.01,8594.47 2940.00,8587.77"/>
    </edge>
    <edge id=":J2_10" function="internal">
        <lane id=":J2_10_0" index="0" speed="6.49" length="9.04" shape="2949.60,8587.70 2949.97,8590.16 2951.03,8591.90 2952.80,8592.92 2955.26,8593.23"/>
    </edge>
    <edge id=":J2_11" function="internal">
        <lane id=":J2_11_0" index="0" speed="13.89" length="27.29" shape="2949.60,8587.70 2950.00,8614.93"/>
        <lane id=":J2_11_1" index="1" speed="13.89" length="27.29" shape="2946.40,8587.72 2946.81,8615.01"/>
        <lane id=":J2_11_2" index="2" speed="13.89" length="27.29" shape="2943.20,8587.75 2943.61,8615.08"/>
    </edge>
    <edge id=":J2_14" function="internal">
        <lane id=":J2_14_0" index="0" speed="10.34" length="4.76" shape="2943.20,8587.75 2942.56,8592.47"/>
    </edge>
    <edge id=":J2_22" function="internal">
        <lane id=":J2_22_0" index="0" speed="10.34" length="19.90" shape="2942.56,8592.47 2942.29,8594.46 2939.45,8599.24 2934.67,8602.09 2927.97,8603.01"/>
    </edge>
    <edge id=":J2_15" function="internal">
        <lane id=":J2_15_0" index="0" speed="6.48" length="9.03" shape="2928.02,8593.41 2930.48,8593.07 2932.23,8592.03 2933.27,8590.28 2933.60,8587.82"/>
    </edge>
    <edge id=":J2_16" function="internal">
        <lane id=":J2_16_0" index="0" speed="13.89" length="27.32" shape="2928.02,8593.41 2955.26,8593.23"/>
        <lane id=":J2_16_1" index="1" speed="13.89" length="27.32" shape="2928.00,8596.61 2955.32,8596.43"/>
        <lane id=":J2_16_2" index="2" speed="13.89" length="27.32" shape="2927.99,8599.81 2955.38,8599.63"/>
    </edge>
    <edge id=":J2_19" function="internal">
        <lane id=":J2_19_0" index="0" speed="10.52" length="4.67" shape="2927.99,8599.81 2932.61,8600.49"/>
    </edge>
    <edge id=":J2_23" function="internal">
        <lane id=":J2_23_0" index="0" speed="10.52" length="20.09" shape="2932.61,8600.49 2934.69,8600.79 2939.53,8603.67 2942.50,8608.43 2943.61,8615.08"/>
    </edge>
    <edge id=":J5_0" function="internal">
        <lane id=":J5_0_0" index="0" speed="10.04" length="16.87" shape="3198.02,8609.47 3196.37,8607.39 3193.23,8605.94 3188.63,8605.13 3182.55,8604.94"/>
    </edge>
    <edge id=":J5_1" function="internal">
        <lane id=":J5_1_0" index="0" speed="13.89" length="29.50" shape="3198.02,8609.47 3194.84,8601.42 3192.43,8596.00 3189.78,8590.69 3185.84,8582.98"/>
        <lane id=":J5_1_1" index="1" speed="13.89" length="29.50" shape="3201.01,8608.32 3197.79,8600.18 3195.36,8594.71 3192.68,8589.34 3188.70,8581.54"/>
        <lane id=":J5_1_2" index="2" speed="13.89" length="29.50" shape="3204.00,8607.17 3200.74,8598.95 3198.29,8593.41 3195.58,8587.99 3191.56,8580.10"/>
    </edge>
    <edge id=":J5_4" function="internal">
        <lane id=":J5_4_0" index="0" speed="13.89" length="30.46" shape="3200.14,8575.78 3204.23,8583.83 3207.06,8589.53 3209.64,8595.34 3212.96,8603.73"/>
        <lane id=":J5_4_1" index="1" speed="13.89" length="30.46" shape="3197.28,8577.22 3201.35,8585.23 3204.14,8590.82 3206.67,8596.54 3209.97,8604.88"/>
        <lane id=":J5_4_2" index="2" speed="13.89" length="30.46" shape="3194.42,8578.66 3198.47,8586.62 3201.22,8592.12 3203.70,8597.73 3206.98,8606.03"/>
    </edge>
    <edge id=":J5_7" function="internal">
        <lane id=":J5_7_0" index="0" speed="10.35" length="4.48" shape="3194.42,8578.66 3195.79,8582.93"/>
        <lane id=":J5_7_1" index="1" speed="9.81" length="4.01" shape="3194.42,8578.66 3195.58,8582.50"/>
    </edge>
    <edge id=":J5_12" function="internal">
        <lane id=":J5_12_0" index="0" speed="10.35" length="28.35" shape="3195.79,8582.93 3197.32,8587.67 3196.30,8594.93 3191.35,8599.83 3182.49,8601.74"/>
    </edge>
    <edge id=":J5_13" function="internal">
        <lane id=":J5_13_0" index="0" speed="9.81" length="25.33" shape="3195.58,8582.50 3196.81,8586.59 3195.43,8592.83 3190.56,8596.95 3182.43,8598.54"/>
    </edge>
    <edge id=":J5_9" function="internal">
        <lane id=":J5_9_0" index="0" speed="5.75" length="9.17" shape="3182.24,8588.94 3184.92,8588.52 3186.41,8587.39 3186.72,8585.54 3185.84,8582.98"/>
    </edge>
    <edge id=":J5_10" function="internal">
        <lane id=":J5_10_0" index="0" speed="13.78" length="32.44" shape="3182.30,8592.14 3192.52,8592.78 3200.53,8595.11 3206.35,8599.15 3209.97,8604.88"/>
        <lane id=":J5_10_1" index="1" speed="12.94" length="28.53" shape="3182.36,8595.34 3191.54,8595.87 3198.71,8597.82 3203.85,8601.21 3206.98,8606.03"/>
    </edge>
    <edge id=":J6_0" function="internal">
        <lane id=":J6_0_0" index="0" speed="11.73" length="22.43" shape="3288.03,8843.86 3285.23,8838.70 3281.41,8835.00 3276.58,8832.74 3270.72,8831.94"/>
    </edge>
    <edge id=":J6_1" function="internal">
        <lane id=":J6_1_0" index="0" speed="13.89" length="36.19" shape="3288.03,8843.86 3274.98,8810.08"/>
        <lane id=":J6_1_1" index="1" speed="13.89" length="36.19" shape="3291.01,8842.70 3277.97,8808.94"/>
        <lane id=":J6_1_2" index="2" speed="13.89" length="36.19" shape="3293.99,8841.54 3280.96,8807.79"/>
    </edge>
    <edge id=":J6_4" function="internal">
        <lane id=":J6_4_0" index="0" speed="9.93" length="4.57" shape="3293.99,8841.54 3293.03,8837.08"/>
    </edge>
    <edge id=":J6_20" function="internal">
        <lane id=":J6_20_0" index="0" speed="9.93" length="24.19" shape="3293.03,8837.08 3292.27,8833.55 3293.96,8827.58 3298.91,8823.84 3306.98,8822.55"/>
    </edge>
    <edge id=":J6_5" function="internal">
        <lane id=":J6_5_0" index="0" speed="5.85" length="9.12" shape="3306.98,8832.15 3304.35,8832.52 3302.80,8833.63 3302.33,8835.48 3302.94,8838.06"/>
    </edge>
    <edge id=":J6_6" function="internal">
        <lane id=":J6_6_0" index="0" speed="13.89" length="36.23" shape="3306.98,8832.15 3270.72,8831.94"/>
        <lane id=":J6_6_1" index="1" speed="13.89" length="36.23" shape="3306.98,8828.95 3270.76,8828.75"/>
        <lane id=":J6_6_2" index="2" speed="13.89" length="36.23" shape="3306.98,8825.75 3270.79,8825.55"/>
    </edge>
    <edge id=":J6_9" function="internal">
        <lane id=":J6_9_0" index="0" speed="13.89" length="5.85" shape="3306.98,8825.75 3301.18,8825.01"/>
    </edge>
    <edge id=":J6_21" function="internal">
        <lane id=":J6_21_0" index="0" speed="13.89" length="27.98" shape="3301.18,8825.01 3298.18,8824.63 3290.91,8821.26 3285.17,8815.65 3280.96,8807.79"/>
    </edge>
    <edge id=":J6_10" function="internal">
        <lane id=":J6_10_0" index="0" speed="11.57" length="22.19" shape="3289.92,8804.35 3292.68,8809.52 3296.45,8813.20 3301.22,8815.42 3306.98,8816.15"/>
    </edge>
    <edge id=":J6_11" function="internal">
        <lane id=":J6_11_0" index="0" speed="13.89" length="36.15" shape="3289.92,8804.35 3302.94,8838.06"/>
        <lane id=":J6_11_1" index="1" speed="13.89" length="36.15" shape="3286.93,8805.50 3299.96,8839.22"/>
        <lane id=":J6_11_2" index="2" speed="13.89" length="36.15" shape="3283.95,8806.65 3296.98,8840.38"/>
    </edge>
    <edge id=":J6_14" function="internal">
        <lane id=":J6_14_0" index="0" speed="9.92" length="4.40" shape="3283.95,8806.65 3284.85,8810.96"/>
    </edge>
    <edge id=":J6_22" function="internal">
        <lane id=":J6_22_0" index="0" speed="9.92" length="24.40" shape="3284.85,8810.96 3285.62,8814.66 3283.88,8820.63 3278.89,8824.33 3270.79,8825.55"/>
    </edge>
    <edge id=":J6_15" function="internal">
        <lane id=":J6_15_0" index="0" speed="5.84" length="9.13" shape="3270.90,8815.95 3273.54,8815.61 3275.10,8814.52 3275.58,8812.68 3274.98,8810.08"/>
    </edge>
    <edge id=":J6_16" function="internal">
        <lane id=":J6_16_0" index="0" speed="13.89" length="36.12" shape="3270.90,8815.95 3306.98,8816.15"/>
        <lane id=":J6_16_1" index="1" speed="13.89" length="36.12" shape="3270.87,8819.15 3306.98,8819.35"/>
        <lane id=":J6_16_2" index="2" speed="13.89" length="36.12" shape="3270.83,8822.35 3306.98,8822.55"/>
    </edge>
    <edge id=":J6_19" function="internal">
        <lane id=":J6_19_0" index="0" speed="13.89" length="5.45" shape="3270.83,8822.35 3276.23,8823.08"/>
    </edge>
    <edge id=":J6_23" function="internal">
        <lane id=":J6_23_0" index="0" speed="13.89" length="28.46" shape="3276.23,8823.08 3279.67,8823.56 3286.97,8826.96 3292.74,8832.57 3296.98,8840.38"/>
    </edge>

    <edge id="-E0" from="J1" to="J0" priority="-1">
        <lane id="-E0_0" index="0" speed="13.89" length="533.15" shape="2932.73,8828.18 2399.58,8826.32"/>
        <lane id="-E0_1" index="1" speed="13.89" length="533.15" shape="2932.74,8824.98 2399.59,8823.12"/>
        <lane id="-E0_2" index="2" speed="13.89" length="533.15" shape="2932.75,8821.78 2399.60,8819.92"/>
    </edge>
    <edge id="-E1" from="J2" to="J1" priority="-1">
        <lane id="-E1_0" index="0" speed="13.89" length="191.32" shape="2950.00,8614.93 2954.29,8806.20"/>
        <lane id="-E1_1" index="1" speed="13.89" length="191.32" shape="2946.81,8615.01 2951.09,8806.27"/>
        <lane id="-E1_2" index="2" speed="13.89" length="191.32" shape="2943.61,8615.08 2947.89,8806.35"/>
    </edge>
    <edge id="-E10" from="J10" to="J1" priority="-1">
        <lane id="-E10_0" index="0" speed="13.89" length="113.74" shape="2939.59,8947.81 2938.71,8834.08"/>
        <lane id="-E10_1" index="1" speed="13.89" length="113.74" shape="2942.79,8947.79 2941.91,8834.05"/>
        <lane id="-E10_2" index="2" speed="13.89" length="113.74" shape="2945.99,8947.76 2945.11,8834.03"/>
    </edge>
    <edge id="-E2" from="J3" to="J2" priority="-1">
        <lane id="-E2_0" index="0" speed="13.89" length="347.26" shape="2580.76,8591.52 2928.02,8593.41"/>
        <lane id="-E2_1" index="1" speed="13.89" length="347.26" shape="2580.75,8594.72 2928.00,8596.61"/>
        <lane id="-E2_2" index="2" speed="13.89" length="347.26" shape="2580.73,8597.92 2927.99,8599.81"/>
    </edge>
    <edge id="-E3" from="J4" to="J2" priority="-1">
        <lane id="-E3_0" index="0" speed="13.89" length="252.11" shape="2947.74,8335.59 2949.60,8587.70"/>
        <lane id="-E3_1" index="1" speed="13.89" length="252.11" shape="2944.54,8335.62 2946.40,8587.72"/>
        <lane id="-E3_2" index="2" speed="13.89" length="252.11" shape="2941.34,8335.64 2943.20,8587.75"/>
    </edge>
    <edge id="-E4" from="J5" to="J2" priority="-1">
        <lane id="-E4_0" index="0" speed="13.89" length="227.03" shape="3182.55,8604.94 2955.56,8609.22"/>
        <lane id="-E4_1" index="1" speed="13.89" length="227.03" shape="3182.49,8601.74 2955.50,8606.02"/>
        <lane id="-E4_2" index="2" speed="13.89" length="227.03" shape="3182.43,8598.54 2955.44,8602.82"/>
    </edge>
    <edge id="-E5" from="J6" to="J5" priority="-1">
        <lane id="-E5_0" index="0" speed="13.89" length="214.87" shape="3274.98,8810.08 3198.02,8609.47"/>
        <lane id="-E5_1" index="1" speed="13.89" length="214.87" shape="3277.97,8808.94 3201.01,8608.32"/>
        <lane id="-E5_2" index="2" speed="13.89" length="214.87" shape="3280.96,8807.79 3204.00,8607.17"/>
    </edge>
    <edge id="-E6" from="J6" to="J1" priority="-1">
        <lane id="-E6_0" index="0" speed="13.89" length="310.44" shape="3270.72,8831.94 2960.30,8828.39"/>
        <lane id="-E6_1" index="1" speed="13.89" length="310.44" shape="3270.76,8828.75 2960.33,8825.19"/>
        <lane id="-E6_2" index="2" speed="13.89" length="310.44" shape="3270.79,8825.55 2960.37,8821.99"/>
    </edge>
    <edge id="-E7" from="J7" to="J6" priority="-1">
        <lane id="-E7_0" index="0" speed="13.89" length="209.54" shape="3516.52,8832.15 3306.98,8832.15"/>
        <lane id="-E7_1" index="1" speed="13.89" length="209.54" shape="3516.52,8828.95 3306.98,8828.95"/>
        <lane id="-E7_2" index="2" speed="13.89" length="209.54" shape="3516.52,8825.75 3306.98,8825.75"/>
    </edge>
    <edge id="-E8" from="J8" to="J6" priority="-1">
        <lane id="-E8_0" index="0" speed="13.89" length="114.58" shape="3329.56,8950.65 3288.03,8843.86"/>
        <lane id="-E8_1" index="1" speed="13.89" length="114.58" shape="3332.54,8949.49 3291.01,8842.70"/>
        <lane id="-E8_2" index="2" speed="13.89" length="114.58" shape="3335.52,8948.33 3293.99,8841.54"/>
    </edge>
    <edge id="-E9" from="J9" to="J5" priority="-1">
        <lane id="-E9_0" index="0" speed="13.89" length="150.96" shape="3132.28,8440.94 3200.14,8575.78"/>
        <lane id="-E9_1" index="1" speed="13.89" length="150.96" shape="3129.42,8442.38 3197.28,8577.22"/>
        <lane id="-E9_2" index="2" speed="13.89" length="150.96" shape="3126.56,8443.82 3194.42,8578.66"/>
    </edge>
    <edge id="E0" from="J0" to="J1" priority="-1">
        <lane id="E0_0" index="0" speed="13.89" length="533.15" shape="2399.63,8810.32 2932.78,8812.18"/>
        <lane id="E0_1" index="1" speed="13.89" length="533.15" shape="2399.62,8813.52 2932.77,8815.38"/>
        <lane id="E0_2" index="2" speed="13.89" length="533.15" shape="2399.61,8816.72 2932.76,8818.58"/>
    </edge>
    <edge id="E1" from="J1" to="J2" priority="-1">
        <lane id="E1_0" index="0" speed="13.89" length="191.32" shape="2938.30,8806.56 2934.01,8615.29"/>
        <lane id="E1_1" index="1" speed="13.89" length="191.32" shape="2941.50,8806.49 2937.21,8615.22"/>
        <lane id="E1_2" index="2" speed="13.89" length="191.32" shape="2944.70,8806.42 2940.41,8615.15"/>
    </edge>
    <edge id="E10" from="J1" to="J10" priority="-1">
        <lane id="E10_0" index="0" speed="13.89" length="113.74" shape="2954.71,8833.95 2955.59,8947.69"/>
        <lane id="E10_1" index="1" speed="13.89" length="113.74" shape="2951.51,8833.98 2952.39,8947.71"/>
        <lane id="E10_2" index="2" speed="13.89" length="113.74" shape="2948.31,8834.00 2949.19,8947.74"/>
    </edge>
    <edge id="E2" from="J2" to="J3" priority="-1">
        <lane id="E2_0" index="0" speed="13.89" length="347.26" shape="2927.93,8609.41 2580.68,8607.52"/>
        <lane id="E2_1" index="1" speed="13.89" length="347.26" shape="2927.95,8606.21 2580.69,8604.32"/>
        <lane id="E2_2" index="2" speed="13.89" length="347.26" shape="2927.97,8603.01 2580.71,8601.12"/>
    </edge>
    <edge id="E3" from="J2" to="J4" priority="-1">
        <lane id="E3_0" index="0" speed="13.89" length="252.11" shape="2933.60,8587.82 2931.74,8335.71"/>
        <lane id="E3_1" index="1" speed="13.89" length="252.11" shape="2936.80,8587.80 2934.94,8335.69"/>
        <lane id="E3_2" index="2" speed="13.89" length="252.11" shape="2940.00,8587.77 2938.14,8335.66"/>
    </edge>
    <edge id="E4" from="J2" to="J5" priority="-1">
        <lane id="E4_0" index="0" speed="13.89" length="227.03" shape="2955.26,8593.23 3182.24,8588.94"/>
        <lane id="E4_1" index="1" speed="13.89" length="227.03" shape="2955.32,8596.43 3182.30,8592.14"/>
        <lane id="E4_2" index="2" speed="13.89" length="227.03" shape="2955.38,8599.63 3182.36,8595.34"/>
    </edge>
    <edge id="E5" from="J5" to="J6" priority="-1">
        <lane id="E5_0" index="0" speed="13.89" length="214.87" shape="3212.96,8603.73 3289.92,8804.35"/>
        <lane id="E5_1" index="1" speed="13.89" length="214.87" shape="3209.97,8604.88 3286.93,8805.50"/>
        <lane id="E5_2" index="2" speed="13.89" length="214.87" shape="3206.98,8606.03 3283.95,8806.65"/>
    </edge>
    <edge id="E6" from="J1" to="J6" priority="-1">
        <lane id="E6_0" index="0" speed="13.89" length="310.44" shape="2960.48,8812.39 3270.90,8815.95"/>
        <lane id="E6_1" index="1" speed="13.89" length="310.44" shape="2960.45,8815.59 3270.87,8819.15"/>
        <lane id="E6_2" index="2" speed="13.89" length="310.44" shape="2960.41,8818.79 3270.83,8822.35"/>
    </edge>
    <edge id="E7" from="J6" to="J7" priority="-1">
        <lane id="E7_0" index="0" speed="13.89" length="209.54" shape="3306.98,8816.15 3516.52,8816.15"/>
        <lane id="E7_1" index="1" speed="13.89" length="209.54" shape="3306.98,8819.35 3516.52,8819.35"/>
        <lane id="E7_2" index="2" speed="13.89" length="209.54" shape="3306.98,8822.55 3516.52,8822.55"/>
    </edge>
    <edge id="E8" from="J6" to="J8" priority="-1">
        <lane id="E8_0" index="0" speed="13.89" length="114.58" shape="3302.94,8838.06 3344.47,8944.85"/>
        <lane id="E8_1" index="1" speed="13.89" length="114.58" shape="3299.96,8839.22 3341.49,8946.01"/>
        <lane id="E8_2" index="2" speed="13.89" length="114.58" shape="3296.98,8840.38 3338.50,8947.17"/>
    </edge>
    <edge id="E9" from="J5" to="J9" priority="-1">
        <lane id="E9_0" index="0" speed="13.89" length="150.96" shape="3185.84,8582.98 3117.99,8448.13"/>
        <lane id="E9_1" index="1" speed="13.89" length="150.96" shape="3188.70,8581.54 3120.85,8446.69"/>
        <lane id="E9_2" index="2" speed="13.89" length="150.96" shape="3191.56,8580.10 3123.70,8445.25"/>
    </edge>

    <tlLogic id="J1" type="static" programID="0" offset="0">
        <phase duration="42" state="rrrrrGGGGgrrrrrGGGGg"/>
        <phase duration="3"  state="rrrrryyyyyrrrrryyyyy"/>
        <phase duration="42" state="GGGGgrrrrrGGGGgrrrrr"/>
        <phase duration="3"  state="yyyyyrrrrryyyyyrrrrr"/>
    </tlLogic>
    <tlLogic id="J2" type="static" programID="0" offset="0">
        <phase duration="42" state="GGGGgrrrrrGGGGgrrrrr"/>
        <phase duration="3"  state="yyyyyrrrrryyyyyrrrrr"/>
        <phase duration="42" state="rrrrrGGGGgrrrrrGGGGg"/>
        <phase duration="3"  state="rrrrryyyyyrrrrryyyyy"/>
    </tlLogic>
    <tlLogic id="J5" type="static" programID="0" offset="0">
        <phase duration="42" state="GGGGGGGggrrr"/>
        <phase duration="3"  state="yyyyyyyyyrrr"/>
        <phase duration="1"  state="rrrrrrrrrrrr"/>
        <phase duration="41" state="GrrrrrrrrGGG"/>
        <phase duration="3"  state="yrrrrrrrryyy"/>
    </tlLogic>
    <tlLogic id="J6" type="static" programID="0" offset="0">
        <phase duration="42" state="GGGGgrrrrrGGGGgrrrrr"/>
        <phase duration="3"  state="yyyyyrrrrryyyyyrrrrr"/>
        <phase duration="42" state="rrrrrGGGGgrrrrrGGGGg"/>
        <phase duration="3"  state="rrrrryyyyyrrrrryyyyy"/>
    </tlLogic>

    <junction id="3370207082" type="dead_end" x="1238.38" y="2.00" incLanes="" intLanes="" shape="1238.38,2.00"/>
    <junction id="5620475670" type="dead_end" x="1227.58" y="0.00" incLanes="" intLanes="" shape="1227.58,0.00"/>
    <junction id="8960445523" type="dead_end" x="2312.46" y="18388.10" incLanes="" intLanes="" shape="2312.46,18388.10"/>
    <junction id="8960445524" type="dead_end" x="2321.89" y="18386.57" incLanes="" intLanes="" shape="2321.89,18386.57"/>
    <junction id="J0" type="dead_end" x="2399.60" y="8818.32" incLanes="-E0_0 -E0_1 -E0_2" intLanes="" shape="2399.60,8818.32 2399.57,8827.92 2399.60,8818.32"/>
    <junction id="J1" type="traffic_light" x="2946.61" y="8820.23" incLanes="-E10_0 -E10_1 -E10_2 -E6_0 -E6_1 -E6_2 -E1_0 -E1_1 -E1_2 E0_0 E0_1 E0_2" intLanes=":J1_0_0 :J1_1_0 :J1_1_1 :J1_1_2 :J1_20_0 :J1_5_0 :J1_6_0 :J1_6_1 :J1_6_2 :J1_21_0 :J1_10_0 :J1_11_0 :J1_11_1 :J1_11_2 :J1_22_0 :J1_15_0 :J1_16_0 :J1_16_1 :J1_16_2 :J1_23_0" shape="2937.11,8834.09 2956.31,8833.94 2956.74,8831.72 2957.29,8830.95 2958.06,8830.41 2959.06,8830.08 2960.28,8829.99 2960.50,8810.79 2957.99,8810.25 2957.10,8809.61 2956.45,8808.71 2956.05,8807.56 2955.89,8806.17 2936.70,8806.60 2936.30,8808.82 2935.76,8809.59 2935.00,8810.14 2934.01,8810.47 2932.79,8810.58 2932.72,8829.78 2935.15,8830.27 2936.00,8830.87 2936.61,8831.70 2936.98,8832.78">
        <request index="0"  response="00000000000111000000" foes="00000000000111000000" cont="0"/>
        <request index="1"  response="11111000001111000000" foes="11111100001111000000" cont="0"/>
        <request index="2"  response="11111000001111000000" foes="11111100001111000000" cont="0"/>
        <request index="3"  response="11111000001111000000" foes="11111100001111000000" cont="0"/>
        <request index="4"  response="11110011101111000000" foes="11110011101111000000" cont="1"/>
        <request index="5"  response="00000000000000000000" foes="00000011100000000000" cont="0"/>
        <request index="6"  response="00000100000000010000" foes="10000111100000011111" cont="0"/>
        <request index="7"  response="00000100000000010000" foes="10000111100000011111" cont="0"/>
        <request index="8"  response="00000100000000010000" foes="10000111100000011111" cont="0"/>
        <request index="9"  response="01110100000000010000" foes="01110111100000011110" cont="1"/>
        <request index="10" response="01110000000000000000" foes="01110000000000000000" cont="0"/>
        <request index="11" response="11110000001111100000" foes="11110000001111110000" cont="0"/>
        <request index="12" response="11110000001111100000" foes="11110000001111110000" cont="0"/>
        <request index="13" response="11110000001111100000" foes="11110000001111110000" cont="0"/>
        <request index="14" response="11110000001111001110" foes="11110000001111001110" cont="1"/>
        <request index="15" response="00000000000000000000" foes="00000000000000001110" cont="0"/>
        <request index="16" response="00000100000000010000" foes="00000111111000011110" cont="0"/>
        <request index="17" response="00000100000000010000" foes="00000111111000011110" cont="0"/>
        <request index="18" response="00000100000000010000" foes="00000111111000011110" cont="0"/>
        <request index="19" response="00000100000111010000" foes="00000111100111011110" cont="1"/>
    </junction>
    <junction id="J10" type="dead_end" x="2947.59" y="8947.75" incLanes="E10_0 E10_1 E10_2" intLanes="" shape="2947.59,8947.75 2957.19,8947.68 2947.59,8947.75"/>
    <junction id="J2" type="traffic_light" x="2941.70" y="8601.48" incLanes="E1_0 E1_1 E1_2 -E4_0 -E4_1 -E4_2 -E3_0 -E3_1 -E3_2 -E2_0 -E2_1 -E2_2" intLanes=":J2_0_0 :J2_1_0 :J2_1_1 :J2_1_2 :J2_20_0 :J2_5_0 :J2_6_0 :J2_6_1 :J2_6_2 :J2_21_0 :J2_10_0 :J2_11_0 :J2_11_1 :J2_11_2 :J2_22_0 :J2_15_0 :J2_16_0 :J2_16_1 :J2_16_2 :J2_23_0" shape="2932.41,8615.33 2951.60,8614.90 2952.01,8612.67 2952.56,8611.88 2953.34,8611.31 2954.35,8610.96 2955.59,8610.82 2955.23,8591.63 2953.00,8591.22 2952.22,8590.68 2951.66,8589.91 2951.32,8588.91 2951.20,8587.69 2932.00,8587.83 2931.57,8590.05 2931.02,8590.83 2930.25,8591.38 2929.25,8591.70 2928.03,8591.81 2927.92,8611.01 2930.37,8611.50 2931.24,8612.10 2931.87,8612.94 2932.26,8614.02">