<additional>
<tazs>
    <taz id="101" edges="E0"/>
    <taz id="102" edges="-E0"/>
    <taz id="103" edges="-E10"/>
    <taz id="104" edges="E10"/>
    <taz id="105" edges="-E8"/>
    <taz id="106" edges="E8"/>
    <taz id="107" edges="-E7"/>
    <taz id="108" edges="E7"/>
    <taz id="109" edges="-E9"/>
    <taz id="110" edges="E9"/>
    <taz id="111" edges="-E3"/>
    <taz id="112" edges="E3"/>
    <taz id="113" edges="-E2"/>
    <taz id="114" edges="E2"/>

</tazs>
</additional>